xflr5 v6.50

 Calculated polar for: FX 63-137 13.7% smoothed

 1 1 Reynolds number fixed          Mach number fixed         

 xtrf =   1.000 (top)        1.000 (bottom)
 Mach =   0.000     Re =     0.350 e 6     Ncrit =   9.000

  alpha     CL        CD       CDp       Cm    Top Xtr Bot Xtr   Cpmin    Chinge    XCp    
 ------- -------- --------- --------- -------- ------- ------- -------- --------- ---------
   0.000   0.9103   0.01072   0.00503  -0.2071  0.6869  0.5635  -1.0714   0.0000   0.4760
   0.200   0.9329   0.01070   0.00500  -0.2072  0.6836  0.5689  -1.0925   0.0000   0.4702
   0.400   0.9559   0.01062   0.00494  -0.2073  0.6793  0.5804  -1.1146   0.0000   0.4647
   0.600   0.9781   0.01062   0.00496  -0.2072  0.6743  0.5894  -1.1363   0.0000   0.4594
   0.800   1.0000   0.01064   0.00500  -0.2071  0.6686  0.5974  -1.1583   0.0000   0.4543
   1.000   1.0222   0.01069   0.00504  -0.2069  0.6626  0.6050  -1.1821   0.0000   0.4494
   1.200   1.0445   0.01075   0.00506  -0.2068  0.6561  0.6119  -1.2061   0.0000   0.4447
   1.400   1.0666   0.01084   0.00509  -0.2067  0.6484  0.6181  -1.2300   0.0000   0.4402
   1.600   1.0893   0.01102   0.00519  -0.2067  0.6386  0.6233  -1.2553   0.0000   0.4359
   1.800   1.1129   0.01127   0.00539  -0.2071  0.6288  0.6273  -1.2822   0.0000   0.4319
   2.000   1.1348   0.01125   0.00541  -0.2069  0.6266  0.6342  -1.3084   0.0000   0.4279
   2.200   1.1564   0.01122   0.00547  -0.2068  0.6232  0.6466  -1.3345   0.0000   0.4241
   2.400   1.1776   0.01124   0.00555  -0.2065  0.6187  0.6558  -1.3604   0.0000   0.4204
   2.600   1.1989   0.01128   0.00563  -0.2063  0.6134  0.6640  -1.3875   0.0000   0.4167
   2.800   1.2203   0.01135   0.00570  -0.2060  0.6069  0.6718  -1.4162   0.0000   0.4132
   3.000   1.2418   0.01143   0.00576  -0.2058  0.5994  0.6792  -1.4451   0.0000   0.4098
   3.200   1.2629   0.01155   0.00582  -0.2055  0.5912  0.6856  -1.4999   0.0000   0.4065
   3.400   1.2836   0.01172   0.00593  -0.2051  0.5819  0.6903  -1.5549   0.0000   0.4033
   3.600   1.3056   0.01193   0.00609  -0.2052  0.5699  0.7024  -1.6118   0.0000   0.4004
   3.800   1.3269   0.01205   0.00627  -0.2050  0.5636  0.7138  -1.6685   0.0000   0.3974
   4.000   1.3467   0.01207   0.00637  -0.2044  0.5598  0.7236  -1.7241   0.0000   0.3944
   4.200   1.3666   0.01211   0.00651  -0.2039  0.5532  0.7328  -1.7806   0.0000   0.3915
   4.400   1.3867   0.01220   0.00660  -0.2034  0.5440  0.7412  -1.8378   0.0000   0.3887
   4.600   1.4064   0.01235   0.00669  -0.2028  0.5329  0.7479  -1.8949   0.0000   0.3859
   4.800   1.4243   0.01254   0.00680  -0.2020  0.5193  0.7589  -1.9500   0.0000   0.3832
   5.000   1.4421   0.01284   0.00703  -0.2011  0.5006  0.7714  -2.0049   0.0000   0.3806
   5.200   1.4611   0.01290   0.00718  -0.2004  0.4955  0.7834  -2.0624   0.0000   0.3780
   5.400   1.4804   0.01302   0.00734  -0.1998  0.4882  0.7946  -2.1208   0.0000   0.3755
   5.600   1.4998   0.01321   0.00752  -0.1993  0.4788  0.8033  -2.1853   0.0000   0.3731
   5.800   1.5173   0.01338   0.00769  -0.1984  0.4678  0.8173  -2.2501   0.0000   0.3706
   6.000   1.5324   0.01366   0.00791  -0.1970  0.4550  0.8310  -2.3116   0.0000   0.3681
   6.200   1.5476   0.01401   0.00821  -0.1957  0.4389  0.8448  -2.3734   0.0000   0.3657
   6.400   1.5664   0.01419   0.00849  -0.1951  0.4317  0.8586  -2.4420   0.0000   0.3635
   6.600   1.5828   0.01430   0.00869  -0.1940  0.4258  0.8784  -2.5070   0.0000   0.3611
   6.800   1.5979   0.01447   0.00889  -0.1926  0.4166  0.9020  -2.5702   0.0000   0.3588
   7.000   1.6062   0.01458   0.00901  -0.1898  0.4056  1.0000  -2.6222   0.0000   0.3561
   7.200   1.6206   0.01506   0.00937  -0.1886  0.3898  1.0000  -2.6850   0.0000   0.3540
   7.400   1.6324   0.01560   0.00981  -0.1869  0.3702  1.0000  -2.7435   0.0000   0.3518
   7.600   1.6482   0.01593   0.01014  -0.1859  0.3603  1.0000  -2.8096   0.0000   0.3497
   7.800   1.6580   0.01648   0.01058  -0.1838  0.3472  1.0000  -2.8656   0.0000   0.3474
   8.000   1.6667   0.01709   0.01109  -0.1815  0.3351  1.0000  -2.9195   0.0000   0.3452
   8.200   1.6771   0.01765   0.01161  -0.1797  0.3222  1.0000  -2.9768   0.0000   0.3430
   8.600   1.6927   0.01903   0.01289  -0.1751  0.2960  1.0000  -3.0820   0.0000   0.3386
   8.800   1.6979   0.01990   0.01366  -0.1726  0.2810  1.0000  -3.1299   0.0000   0.3365
   9.000   1.7068   0.02061   0.01435  -0.1707  0.2670  1.0000  -3.1848   0.0000   0.3345
   9.200   1.7097   0.02165   0.01531  -0.1680  0.2511  1.0000  -3.2281   0.0000   0.3324
   9.400   1.7170   0.02252   0.01615  -0.1660  0.2351  1.0000  -3.2796   0.0000   0.3304
   9.600   1.7182   0.02378   0.01732  -0.1634  0.2186  1.0000  -3.3191   0.0000   0.3284
   9.800   1.7201   0.02509   0.01854  -0.1609  0.1999  1.0000  -3.3596   0.0000   0.3266
  10.000   1.7208   0.02652   0.01990  -0.1585  0.1818  1.0000  -3.3981   0.0000   0.3247
  10.200   1.7197   0.02819   0.02147  -0.1561  0.1643  1.0000  -3.4385   0.0000   0.3230
  10.400   1.7171   0.03004   0.02322  -0.1536  0.1487  1.0000  -3.4754   0.0000   0.3213
  10.600   1.7181   0.03166   0.02483  -0.1517  0.1377  1.0000  -3.5197   0.0000   0.3197
  10.800   1.7169   0.03352   0.02663  -0.1496  0.1282  1.0000  -3.5590   0.0000   0.3182
  11.000   1.7169   0.03537   0.02851  -0.1479  0.1217  1.0000  -3.5997   0.0000   0.3167
  11.200   1.7202   0.03699   0.03017  -0.1464  0.1171  1.0000  -3.6489   0.0000   0.3153
  11.400   1.7222   0.03880   0.03198  -0.1450  0.1126  1.0000  -3.6951   0.0000   0.3140
  11.600   1.7217   0.04089   0.03408  -0.1435  0.1082  1.0000  -3.7343   0.0000   0.3127
  11.800   1.7156   0.04364   0.03686  -0.1419  0.1040  1.0000  -3.7572   0.0000   0.3116
  12.000   1.7204   0.04532   0.03865  -0.1409  0.1019  1.0000  -3.8094   0.0000   0.3104
  12.200   1.7267   0.04686   0.04028  -0.1401  0.1000  1.0000  -3.8663   0.0000   0.3092
  12.400   1.7319   0.04853   0.04202  -0.1392  0.0978  1.0000  -3.9206   0.0000   0.3080
  12.600   1.7355   0.05040   0.04395  -0.1384  0.0957  1.0000  -3.9707   0.0000   0.3069
  12.800   1.7345   0.05287   0.04649  -0.1375  0.0939  1.0000  -4.0081   0.0000   0.3060
  13.000   1.7348   0.05518   0.04885  -0.1368  0.0922  1.0000  -4.0488   0.0000   0.3051
  13.200   1.7356   0.05747   0.05118  -0.1360  0.0903  1.0000  -4.1054   0.0000   0.3042
  13.400   1.7351   0.05985   0.05360  -0.1352  0.0883  1.0000  -4.1952   0.0000   0.3033
  13.600   1.7335   0.06239   0.05620  -0.1344  0.0862  1.0000  -4.2792   0.0000   0.3024
  13.800   1.7309   0.06511   0.05899  -0.1335  0.0841  1.0000  -4.3575   0.0000   0.3016
  14.000   1.7324   0.06755   0.06155  -0.1333  0.0836  1.0000  -4.4587   0.0000   0.3009
  14.200   1.7365   0.06965   0.06374  -0.1330  0.0830  1.0000  -4.5738   0.0000   0.3001
  14.400   1.7415   0.07164   0.06582  -0.1327  0.0822  1.0000  -4.6948   0.0000   0.2992
  14.600   1.7465   0.07363   0.06790  -0.1324  0.0812  1.0000  -4.8163   0.0000   0.2984
  14.800   1.7510   0.07568   0.07003  -0.1322  0.0802  1.0000  -4.9368   0.0000   0.2976
  15.000   1.7551   0.07779   0.07223  -0.1320  0.0791  1.0000  -5.0555   0.0000   0.2968


