xflr5 v6.50

 Calculated polar for: E216  (10.4%)

 1 1 Reynolds number fixed          Mach number fixed         

 xtrf =   1.000 (top)        1.000 (bottom)
 Mach =   0.000     Re =     0.350 e 6     Ncrit =   9.000

  alpha     CL        CD       CDp       Cm    Top Xtr Bot Xtr   Cpmin    Chinge    XCp    
 ------- -------- --------- --------- -------- ------- ------- -------- --------- ---------
   0.000   0.7762   0.00884   0.00404  -0.1949  0.8622  0.6252  -0.8195   0.0000   0.5001
   0.200   0.8079   0.00867   0.00392  -0.1967  0.8562  0.6515  -0.8457   0.0000   0.4922
   0.400   0.8426   0.00856   0.00376  -0.1992  0.8498  0.6711  -0.8764   0.0000   0.4850
   0.600   0.8605   0.00854   0.00384  -0.1981  0.8400  0.6925  -0.8967   0.0000   0.4786
   0.800   0.8822   0.00852   0.00384  -0.1978  0.8292  0.7128  -0.9195   0.0000   0.4723
   1.000   0.9097   0.00847   0.00378  -0.1987  0.8197  0.7336  -0.9462   0.0000   0.4663
   1.200   0.9365   0.00845   0.00376  -0.1995  0.8096  0.7558  -0.9760   0.0000   0.4607
   1.400   0.9540   0.00851   0.00384  -0.1983  0.7979  0.7728  -0.9993   0.0000   0.4553
   1.600   0.9751   0.00850   0.00385  -0.1978  0.7851  0.7930  -1.0279   0.0000   0.4501
   1.800   0.9993   0.00855   0.00384  -0.1980  0.7728  0.8148  -1.0603   0.0000   0.4452
   2.000   1.0163   0.00859   0.00398  -0.1968  0.7624  0.8351  -1.0873   0.0000   0.4404
   2.200   1.0335   0.00863   0.00402  -0.1954  0.7487  0.8568  -1.1145   0.0000   0.4357
   2.400   1.0530   0.00871   0.00402  -0.1946  0.7332  0.8766  -1.1458   0.0000   0.4312
   2.600   1.0679   0.00874   0.00407  -0.1929  0.7204  0.9019  -1.1758   0.0000   0.4267
   2.800   1.0798   0.00873   0.00405  -0.1904  0.7060  0.9385  -1.2034   0.0000   0.4222
   3.000   1.0991   0.00881   0.00402  -0.1897  0.6885  1.0000  -1.2436   0.0000   0.4182
   3.200   1.1208   0.00896   0.00414  -0.1896  0.6746  1.0000  -1.2864   0.0000   0.4146
   3.400   1.1421   0.00913   0.00424  -0.1895  0.6597  1.0000  -1.3293   0.0000   0.4111
   3.600   1.1624   0.00938   0.00436  -0.1891  0.6421  1.0000  -1.3716   0.0000   0.4076
   3.800   1.1826   0.00955   0.00450  -0.1887  0.6273  1.0000  -1.4184   0.0000   0.4043
   4.000   1.2020   0.00977   0.00464  -0.1881  0.6089  1.0000  -1.4755   0.0000   0.4010
   4.200   1.2195   0.01008   0.00481  -0.1872  0.5875  1.0000  -1.5346   0.0000   0.3977
   4.400   1.2372   0.01032   0.00497  -0.1862  0.5643  1.0000  -1.5947   0.0000   0.3945
   4.600   1.2519   0.01070   0.00517  -0.1847  0.5359  1.0000  -1.6510   0.0000   0.3913
   4.800   1.2669   0.01108   0.00538  -0.1833  0.5053  1.0000  -1.7083   0.0000   0.3881
   5.000   1.2817   0.01146   0.00562  -0.1818  0.4755  1.0000  -1.7656   0.0000   0.3851
   5.200   1.2939   0.01198   0.00591  -0.1799  0.4412  1.0000  -1.8194   0.0000   0.3820
   5.400   1.3074   0.01245   0.00620  -0.1783  0.4086  1.0000  -1.9287   0.0000   0.3791
   5.600   1.3222   0.01285   0.00649  -0.1769  0.3843  1.0000  -2.0789   0.0000   0.3763
   5.800   1.3570   0.01249   0.00695  -0.1794  0.4346  1.0000  -2.3603   0.0000   0.3743
   6.000   1.3712   0.01291   0.00727  -0.1779  0.4114  1.0000  -2.5270   0.0000   0.3716
   6.200   1.3854   0.01331   0.00762  -0.1763  0.3918  1.0000  -2.6934   0.0000   0.3689
   6.400   1.4003   0.01371   0.00795  -0.1750  0.3709  1.0000  -2.8657   0.0000   0.3663
   6.600   1.4124   0.01422   0.00835  -0.1732  0.3473  1.0000  -3.0275   0.0000   0.3637
   6.800   1.4270   0.01465   0.00872  -0.1718  0.3265  1.0000  -3.2040   0.0000   0.3612
   7.000   1.4387   0.01521   0.00917  -0.1700  0.3042  1.0000  -3.3691   0.0000   0.3587
   7.200   1.4538   0.01562   0.00956  -0.1687  0.2873  1.0000  -3.5533   0.0000   0.3563
   7.400   1.4644   0.01626   0.01007  -0.1667  0.2646  1.0000  -3.7186   0.0000   0.3538
   7.600   1.4776   0.01679   0.01054  -0.1652  0.2433  1.0000  -3.9000   0.0000   0.3515
   7.800   1.4872   0.01753   0.01111  -0.1632  0.2158  1.0000  -4.0654   0.0000   0.3491
   8.000   1.4957   0.01837   0.01175  -0.1610  0.1883  1.0000  -4.2275   0.0000   0.3467
   8.200   1.5076   0.01898   0.01231  -0.1593  0.1695  1.0000  -4.4087   0.0000   0.3445
   8.600   1.5281   0.02046   0.01361  -0.1556  0.1333  1.0000  -4.7584   0.0000   0.3400
   8.800   1.5368   0.02134   0.01437  -0.1536  0.1146  1.0000  -4.9258   0.0000   0.3379
   9.000   1.5468   0.02210   0.01506  -0.1518  0.1004  1.0000  -5.1005   0.0000   0.3357
   9.200   1.5549   0.02301   0.01586  -0.1498  0.0834  1.0000  -5.2557   0.0000   0.3336
   9.600   1.5244   0.02881   0.02121  -0.1385  0.0128  1.0000  -4.8954   0.0000   0.3275
   9.800   1.5282   0.03019   0.02283  -0.1360  0.0124  1.0000  -4.9496   0.0000   0.3253
  10.000   1.5304   0.03168   0.02446  -0.1333  0.0122  1.0000  -5.0268   0.0000   0.3231
  10.200   1.5320   0.03328   0.02621  -0.1308  0.0122  1.0000  -5.1015   0.0000   0.3210
  10.400   1.5321   0.03503   0.02812  -0.1282  0.0122  1.0000  -5.1694   0.0000   0.3190
  10.600   1.5313   0.03691   0.03015  -0.1256  0.0122  1.0000  -5.2321   0.0000   0.3170
  10.800   1.5301   0.03886   0.03225  -0.1231  0.0122  1.0000  -5.2909   0.0000   0.3151
  11.000   1.5276   0.04096   0.03450  -0.1207  0.0122  1.0000  -5.3426   0.0000   0.3133
  11.200   1.5264   0.04318   0.03687  -0.1185  0.0122  1.0000  -5.3949   0.0000   0.3115
  11.400   1.5257   0.04554   0.03939  -0.1164  0.0123  1.0000  -5.4447   0.0000   0.3099
  11.600   1.5249   0.04807   0.04209  -0.1145  0.0124  1.0000  -5.4890   0.0000   0.3083
  11.800   1.5250   0.05074   0.04493  -0.1128  0.0125  1.0000  -5.5289   0.0000   0.3068
  12.000   1.5254   0.05365   0.04803  -0.1111  0.0126  1.0000  -5.5580   0.0000   0.3053
  12.200   1.5247   0.05702   0.05162  -0.1094  0.0127  1.0000  -5.5614   0.0000   0.3039
  12.800   1.5255   0.06549   0.06061  -0.1058  0.0135  1.0000  -5.6863   0.0000   0.3004
  13.000   1.5273   0.06749   0.06272  -0.1050  0.0137  1.0000  -5.7805   0.0000   0.2994
  13.200   1.5280   0.06965   0.06498  -0.1044  0.0139  1.0000  -5.8664   0.0000   0.2986
  13.400   1.5275   0.07199   0.06744  -0.1039  0.0141  1.0000  -5.9421   0.0000   0.2978
  13.600   1.5262   0.07454   0.07014  -0.1035  0.0144  1.0000  -6.0046   0.0000   0.2972
  13.800   1.5220   0.07747   0.07322  -0.1033  0.0145  1.0000  -6.0457   0.0000   0.2969
  14.000   1.5162   0.08046   0.07638  -0.1033  0.0147  1.0000  -6.0727   0.0000   0.2967
  14.200   1.5095   0.08365   0.07973  -0.1036  0.0149  1.0000  -6.0888   0.0000   0.2968
  14.400   1.5006   0.08729   0.08355  -0.1043  0.0150  1.0000  -6.0885   0.0000   0.2973
  14.600   1.4917   0.09119   0.08762  -0.1053  0.0151  1.0000  -6.0806   0.0000   0.2979
  14.800   1.4803   0.09568   0.09230  -0.1069  0.0153  1.0000  -6.0515   0.0000   0.2991
  15.000   1.4680   0.10062   0.09744  -0.1088  0.0156  1.0000  -6.0016   0.0000   0.3006


