xflr5 v6.54

 Calculated polar for: GOE 448 AIRFOIL

 2 2 Reynolds number ~ 1/sqrt(CL)   Mach number ~ 1/sqrt(CL)  

 xtrf =   1.000 (top)        1.000 (bottom)
 Mach =   0.000     Re =     0.350 e 6     Ncrit =   9.000

  alpha     CL        CD       CDp       Cm    Top Xtr Bot Xtr   Cpmin    Chinge    XCp    
 ------- -------- --------- --------- -------- ------- ------- -------- --------- ---------
  -4.750   0.5307   0.04740   0.04342  -0.1876  0.7039  0.0498  -1.1026   0.0000   0.6147
  -3.500   0.6725   0.03769   0.03331  -0.2051  0.6922  0.0587  -1.1803   0.0000   0.5614
  -3.250   0.7301   0.03284   0.02809  -0.2171  0.6912  0.0624  -1.2033   0.0000   0.5529
  -3.000   0.7175   0.01625   0.01179  -0.2033  0.6787  0.0630  -1.1264   0.0000   0.5370
  -2.750   0.7413   0.01547   0.01095  -0.2041  0.6763  0.0643  -1.1438   0.0000   0.5283
  -2.250   0.8656   0.02256   0.01672  -0.2303  0.6824  0.0697  -1.2785   0.0000   0.5188
  -2.000   0.8729   0.02606   0.02078  -0.2257  0.6786  0.0729  -1.2934   0.0000   0.5107
  -1.750   0.9125   0.02325   0.01756  -0.2297  0.6767  0.0795  -1.3148   0.0000   0.5033
  -1.500   0.9384   0.02307   0.01734  -0.2300  0.6744  0.0823  -1.3347   0.0000   0.4962
  -1.250   0.9700   0.02213   0.01619  -0.2317  0.6721  0.0916  -1.3561   0.0000   0.4894
  -0.750   1.0221   0.02122   0.01509  -0.2324  0.6660  0.1161  -1.3935   0.0000   0.4768
  -0.500   1.0465   0.02107   0.01497  -0.2323  0.6630  0.1217  -1.4164   0.0000   0.4709
   0.000   1.1146   0.01807   0.01108  -0.2353  0.6584  0.1113  -1.4750   0.0000   0.4590
   0.250   1.1393   0.01866   0.01179  -0.2355  0.6554  0.1331  -1.5031   0.0000   0.4541
   0.500   1.1605   0.01885   0.01204  -0.2346  0.6512  0.1489  -1.5275   0.0000   0.4491
   0.750   1.1940   0.01671   0.00924  -0.2354  0.6477  0.1085  -1.5555   0.0000   0.4436
   1.000   1.2215   0.01647   0.00885  -0.2355  0.6440  0.1087  -1.5848   0.0000   0.4388
   1.250   1.2508   0.01639   0.00862  -0.2360  0.6409  0.1103  -1.6159   0.0000   0.4342
   1.500   1.2743   0.01638   0.00859  -0.2354  0.6373  0.1110  -1.6425   0.0000   0.4298
   1.750   1.2979   0.01638   0.00857  -0.2349  0.6337  0.1115  -1.6692   0.0000   0.4255
   2.000   1.3235   0.01639   0.00853  -0.2347  0.6304  0.1121  -1.6977   0.0000   0.4214
   2.250   1.3507   0.01640   0.00849  -0.2349  0.6275  0.1128  -1.7275   0.0000   0.4175
   2.500   1.3797   0.01645   0.00846  -0.2354  0.6248  0.1137  -1.7588   0.0000   0.4138
   2.750   1.4017   0.01651   0.00859  -0.2346  0.6211  0.1161  -1.7844   0.0000   0.4101
   3.000   1.4236   0.01664   0.00877  -0.2338  0.6171  0.1184  -1.8111   0.0000   0.4065
   3.250   1.4485   0.01675   0.00888  -0.2336  0.6136  0.1205  -1.8406   0.0000   0.4030
   3.500   1.4757   0.01686   0.00897  -0.2338  0.6105  0.1231  -1.8720   0.0000   0.3997
   3.750   1.5049   0.01704   0.00910  -0.2344  0.6077  0.1265  -1.9051   0.0000   0.3966
   4.000   1.5210   0.01729   0.00945  -0.2325  0.6031  0.1294  -1.9276   0.0000   0.3932
   4.250   1.5426   0.01746   0.00968  -0.2316  0.5987  0.1366  -1.9547   0.0000   0.3900
   4.500   1.5682   0.01757   0.00981  -0.2315  0.5948  0.1530  -1.9853   0.0000   0.3870
   4.750   1.5957   0.01768   0.01004  -0.2319  0.5911  0.2385  -2.0174   0.0000   0.3842
   5.000   1.6070   0.01715   0.01057  -0.2291  0.5860  1.0000  -2.0363   0.0000   0.3810
   5.250   1.6274   0.01743   0.01080  -0.2280  0.5815  1.0000  -2.0626   0.0000   0.3780
   5.500   1.6526   0.01766   0.01095  -0.2278  0.5778  1.0000  -2.0930   0.0000   0.3753
   5.750   1.6751   0.01799   0.01125  -0.2272  0.5740  1.0000  -2.1209   0.0000   0.3726
   6.000   1.6857   0.01839   0.01171  -0.2243  0.5688  1.0000  -2.1399   0.0000   0.3695
   6.250   1.7040   0.01868   0.01199  -0.2229  0.5642  1.0000  -2.1658   0.0000   0.3667
   6.500   1.7314   0.01891   0.01212  -0.2232  0.5603  1.0000  -2.1996   0.0000   0.3643
   6.750   1.7369   0.01943   0.01273  -0.2194  0.5546  1.0000  -2.2141   0.0000   0.3613
   7.000   1.7492   0.01984   0.01315  -0.2170  0.5489  1.0000  -2.2348   0.0000   0.3584
   7.250   1.7738   0.02000   0.01321  -0.2167  0.5431  1.0000  -2.2669   0.0000   0.3560
   7.500   1.7690   0.02077   0.01411  -0.2114  0.5351  1.0000  -2.2724   0.0000   0.3528
   7.750   1.7869   0.02103   0.01426  -0.2099  0.5276  1.0000  -2.2988   0.0000   0.3503
   8.000   1.7839   0.02198   0.01534  -0.2053  0.5191  1.0000  -2.3052   0.0000   0.3473
   8.250   1.7991   0.02243   0.01571  -0.2036  0.5121  1.0000  -2.3286   0.0000   0.3449
   8.500   1.7996   0.02350   0.01688  -0.1998  0.5038  1.0000  -2.3373   0.0000   0.3422
   8.750   1.8120   0.02412   0.01747  -0.1978  0.4963  1.0000  -2.3694   0.0000   0.3397
   9.000   1.8133   0.02533   0.01877  -0.1944  0.4876  1.0000  -2.3920   0.0000   0.3372
   9.250   1.8223   0.02617   0.01954  -0.1921  0.4787  1.0000  -2.4237   0.0000   0.3348
   9.500   1.8208   0.02767   0.02112  -0.1886  0.4682  1.0000  -2.4428   0.0000   0.3324
   9.750   1.8248   0.02895   0.02241  -0.1859  0.4588  1.0000  -2.4681   0.0000   0.3301
  10.000   1.8278   0.03033   0.02379  -0.1831  0.4487  1.0000  -2.4923   0.0000   0.3278
  10.250   1.8273   0.03208   0.02559  -0.1802  0.4377  1.0000  -2.5119   0.0000   0.3256
  10.500   1.8277   0.03383   0.02734  -0.1774  0.4264  1.0000  -2.5325   0.0000   0.3235
  10.750   1.8274   0.03570   0.02918  -0.1747  0.4146  1.0000  -2.5760   0.0000   0.3214
  11.000   1.8254   0.03785   0.03134  -0.1720  0.4021  1.0000  -2.6651   0.0000   0.3194
  11.250   1.8219   0.04021   0.03370  -0.1693  0.3884  1.0000  -2.7489   0.0000   0.3174
  11.500   1.8148   0.04295   0.03640  -0.1663  0.3724  1.0000  -2.8201   0.0000   0.3155
  11.750   1.8080   0.04579   0.03920  -0.1636  0.3569  1.0000  -2.8913   0.0000   0.3137
  12.000   1.7999   0.04886   0.04224  -0.1610  0.3407  1.0000  -2.9566   0.0000   0.3120
  12.250   1.7907   0.05212   0.04546  -0.1584  0.3241  1.0000  -3.0167   0.0000   0.3104
  12.500   1.7815   0.05550   0.04880  -0.1559  0.3074  1.0000  -3.0749   0.0000   0.3088
  12.750   1.7715   0.05907   0.05232  -0.1536  0.2899  1.0000  -3.1341   0.0000   0.3074
  13.000   1.7561   0.06332   0.05650  -0.1512  0.2654  1.0000  -3.1757   0.0000   0.3061
  13.250   1.7346   0.06833   0.06138  -0.1486  0.2336  1.0000  -3.1946   0.0000   0.3050
  13.500   1.7015   0.07483   0.06766  -0.1457  0.1929  1.0000  -3.1703   0.0000   0.3043
  13.750   1.6748   0.08078   0.07347  -0.1434  0.1684  1.0000  -3.1657   0.0000   0.3037
  14.000   1.6568   0.08579   0.07843  -0.1417  0.1508  1.0000  -3.1903   0.0000   0.3029
  14.250   1.6423   0.09051   0.08311  -0.1403  0.1320  1.0000  -3.2253   0.0000   0.3022
  14.500   1.6134   0.09715   0.08955  -0.1388  0.0909  1.0000  -3.2061   0.0000   0.3022
  14.750   1.5818   0.10427   0.09647  -0.1375  0.0558  1.0000  -3.1724   0.0000   0.3026
  15.000   1.5599   0.11030   0.10238  -0.1367  0.0283  1.0000  -3.1717   0.0000   0.3027


