xflr5 v6.54

 Calculated polar for: E216  (10.4%)

 2 2 Reynolds number ~ 1/sqrt(CL)   Mach number ~ 1/sqrt(CL)  

 xtrf =   1.000 (top)        1.000 (bottom)
 Mach =   0.000     Re =     0.350 e 6     Ncrit =   9.000

  alpha     CL        CD       CDp       Cm    Top Xtr Bot Xtr   Cpmin    Chinge    XCp    
 ------- -------- --------- --------- -------- ------- ------- -------- --------- ---------
  -4.750   0.1918   0.00999   0.00492  -0.1808  0.9339  0.0143  -2.8076   0.0000   1.2066
  -4.500   0.2214   0.00976   0.00454  -0.1815  0.9325  0.0158  -2.5797   0.0000   1.0811
  -4.250   0.2514   0.00968   0.00434  -0.1822  0.9312  0.0177  -2.3817   0.0000   0.9839
  -4.000   0.2830   0.00954   0.00409  -0.1831  0.9302  0.0208  -2.1954   0.0000   0.9049
  -3.750   0.3164   0.00927   0.00383  -0.1846  0.9293  0.0409  -2.0208   0.0000   0.8399
  -3.500   0.3509   0.00895   0.00368  -0.1864  0.9286  0.1055  -1.8222   0.0000   0.7869
  -3.250   0.3737   0.00887   0.00367  -0.1855  0.9227  0.1411  -1.6406   0.0000   0.7512
  -3.000   0.4045   0.00872   0.00361  -0.1864  0.9199  0.1903  -1.4322   0.0000   0.7148
  -2.750   0.4379   0.00858   0.00355  -0.1878  0.9180  0.2404  -1.2204   0.0000   0.6822
  -2.500   0.4727   0.00846   0.00348  -0.1895  0.9163  0.2883  -1.0123   0.0000   0.6536
  -2.250   0.5089   0.00836   0.00341  -0.1914  0.9148  0.3305  -0.8085   0.0000   0.6283
  -2.000   0.5342   0.00833   0.00343  -0.1908  0.9084  0.3659  -0.6636   0.0000   0.6090
  -1.750   0.5675   0.00826   0.00338  -0.1920  0.9046  0.4034  -0.6556   0.0000   0.5898
  -1.500   0.6043   0.00819   0.00332  -0.1940  0.9018  0.4393  -0.6797   0.0000   0.5720
  -1.250   0.6438   0.00813   0.00327  -0.1965  0.8996  0.4749  -0.7059   0.0000   0.5558
  -1.000   0.6681   0.00814   0.00331  -0.1957  0.8908  0.5039  -0.7251   0.0000   0.5431
  -0.750   0.7051   0.00808   0.00326  -0.1976  0.8866  0.5378  -0.7521   0.0000   0.5302
  -0.500   0.7344   0.00809   0.00330  -0.1978  0.8788  0.5672  -0.7761   0.0000   0.5190
  -0.250   0.7690   0.00806   0.00328  -0.1991  0.8723  0.5978  -0.8042   0.0000   0.5083
   0.000   0.7982   0.00808   0.00332  -0.1993  0.8632  0.6259  -0.8307   0.0000   0.4987
   0.250   0.8335   0.00807   0.00331  -0.2007  0.8558  0.6556  -0.8620   0.0000   0.4896
   0.500   0.8603   0.00812   0.00338  -0.2004  0.8444  0.6830  -0.8889   0.0000   0.4814
   0.750   0.8890   0.00817   0.00344  -0.2004  0.8333  0.7105  -0.9185   0.0000   0.4735
   1.000   0.9183   0.00822   0.00351  -0.2004  0.8220  0.7375  -0.9497   0.0000   0.4662
   1.250   0.9467   0.00830   0.00357  -0.2003  0.8100  0.7645  -0.9826   0.0000   0.4592
   1.500   0.9720   0.00839   0.00366  -0.1995  0.7962  0.7915  -1.0158   0.0000   0.4526
   1.750   0.9959   0.00849   0.00376  -0.1984  0.7819  0.8178  -1.0499   0.0000   0.4463
   2.000   1.0187   0.00859   0.00387  -0.1970  0.7670  0.8450  -1.0844   0.0000   0.4402
   2.250   1.0395   0.00869   0.00395  -0.1952  0.7514  0.8743  -1.1187   0.0000   0.4343
   2.500   1.0572   0.00875   0.00400  -0.1927  0.7352  0.9094  -1.1527   0.0000   0.4285
   2.750   1.0739   0.00872   0.00393  -0.1900  0.7183  1.0000  -1.1891   0.0000   0.4228
   3.000   1.1008   0.00897   0.00410  -0.1898  0.7004  1.0000  -1.2382   0.0000   0.4181
   3.250   1.1268   0.00923   0.00426  -0.1895  0.6822  1.0000  -1.2893   0.0000   0.4134
   3.500   1.1520   0.00951   0.00444  -0.1889  0.6634  1.0000  -1.3430   0.0000   0.4090
   3.750   1.1766   0.00981   0.00465  -0.1882  0.6444  1.0000  -1.4000   0.0000   0.4047
   4.000   1.2003   0.01013   0.00487  -0.1873  0.6247  1.0000  -1.4594   0.0000   0.4005
   4.250   1.2232   0.01045   0.00511  -0.1863  0.6034  1.0000  -1.5270   0.0000   0.3964
   4.500   1.2455   0.01081   0.00537  -0.1851  0.5817  1.0000  -1.6078   0.0000   0.3924
   4.750   1.2674   0.01118   0.00566  -0.1839  0.5602  1.0000  -1.6892   0.0000   0.3885
   5.000   1.2888   0.01156   0.00597  -0.1826  0.5380  1.0000  -1.7762   0.0000   0.3848
   5.250   1.3093   0.01199   0.00629  -0.1811  0.5156  1.0000  -1.9362   0.0000   0.3811
   5.500   1.3298   0.01241   0.00665  -0.1796  0.4923  1.0000  -2.1017   0.0000   0.3776
   5.750   1.3491   0.01289   0.00703  -0.1780  0.4690  1.0000  -2.2674   0.0000   0.3741
   6.000   1.3680   0.01337   0.00743  -0.1762  0.4440  1.0000  -2.4356   0.0000   0.3706
   6.250   1.3854   0.01389   0.00785  -0.1742  0.4189  1.0000  -2.6022   0.0000   0.3672
   6.500   1.4013   0.01447   0.00833  -0.1720  0.3923  1.0000  -2.7667   0.0000   0.3639
   6.750   1.4168   0.01509   0.00883  -0.1697  0.3636  1.0000  -2.9325   0.0000   0.3605
   7.000   1.4319   0.01575   0.00937  -0.1674  0.3344  1.0000  -3.1003   0.0000   0.3573
   7.250   1.4467   0.01645   0.00995  -0.1651  0.3052  1.0000  -3.2847   0.0000   0.3542
   7.500   1.4609   0.01722   0.01059  -0.1627  0.2760  1.0000  -3.4693   0.0000   0.3511
   7.750   1.4748   0.01803   0.01129  -0.1604  0.2475  1.0000  -3.6556   0.0000   0.3481
   8.000   1.4888   0.01888   0.01202  -0.1581  0.2220  1.0000  -3.8446   0.0000   0.3452
   8.500   1.5146   0.02075   0.01367  -0.1534  0.1709  1.0000  -4.2198   0.0000   0.3395
   8.750   1.5269   0.02176   0.01459  -0.1511  0.1474  1.0000  -4.4066   0.0000   0.3368
   9.000   1.5381   0.02285   0.01558  -0.1486  0.1264  1.0000  -4.5892   0.0000   0.3341
   9.250   1.5497   0.02395   0.01661  -0.1462  0.1066  1.0000  -4.7727   0.0000   0.3315
   9.500   1.5591   0.02521   0.01778  -0.1437  0.0875  1.0000  -4.9438   0.0000   0.3288
   9.750   1.5675   0.02659   0.01907  -0.1410  0.0669  1.0000  -5.1019   0.0000   0.3262
  10.000   1.5688   0.02861   0.02089  -0.1375  0.0431  1.0000  -5.2046   0.0000   0.3235
  10.250   1.5706   0.03064   0.02291  -0.1341  0.0312  1.0000  -5.2888   0.0000   0.3208
  10.500   1.5723   0.03269   0.02500  -0.1309  0.0271  1.0000  -5.3888   0.0000   0.3183
  10.750   1.5783   0.03440   0.02684  -0.1283  0.0249  1.0000  -5.5379   0.0000   0.3159
  11.000   1.5825   0.03630   0.02883  -0.1258  0.0233  1.0000  -5.6873   0.0000   0.3137
  11.250   1.5809   0.03879   0.03140  -0.1229  0.0220  1.0000  -5.8007   0.0000   0.3115
  11.500   1.5832   0.04101   0.03375  -0.1206  0.0211  1.0000  -5.9343   0.0000   0.3095
  11.750   1.5867   0.04320   0.03607  -0.1186  0.0203  1.0000  -6.0783   0.0000   0.3075
  12.000   1.5886   0.04561   0.03861  -0.1166  0.0196  1.0000  -6.2139   0.0000   0.3058
  12.250   1.5895   0.04823   0.04135  -0.1149  0.0190  1.0000  -6.3438   0.0000   0.3041
  12.500   1.5898   0.05101   0.04425  -0.1133  0.0185  1.0000  -6.4707   0.0000   0.3026
  12.750   1.5890   0.05403   0.04737  -0.1118  0.0181  1.0000  -6.5905   0.0000   0.3013
  13.000   1.5871   0.05733   0.05076  -0.1105  0.0177  1.0000  -6.6985   0.0000   0.3000
  13.250   1.5845   0.06091   0.05444  -0.1093  0.0174  1.0000  -6.7899   0.0000   0.2988
  13.500   1.5851   0.06425   0.05789  -0.1082  0.0171  1.0000  -6.8927   0.0000   0.2976
  13.750   1.5877   0.06732   0.06112  -0.1074  0.0169  1.0000  -7.0135   0.0000   0.2965
  14.000   1.5903   0.07050   0.06446  -0.1067  0.0167  1.0000  -7.1291   0.0000   0.2954
  14.250   1.5925   0.07381   0.06793  -0.1061  0.0165  1.0000  -7.2444   0.0000   0.2944
  14.500   1.5939   0.07728   0.07158  -0.1056  0.0163  1.0000  -7.3721   0.0000   0.2936
  14.750   1.5941   0.08097   0.07547  -0.1054  0.0161  1.0000  -7.4913   0.0000   0.2929
  15.000   1.5931   0.08488   0.07958  -0.1054  0.0159  1.0000  -7.6014   0.0000   0.2924


