xflr5 v6.50

 Calculated polar for: AH 79-100 C AIRFOIL

 1 1 Reynolds number fixed          Mach number fixed         

 xtrf =   1.000 (top)        1.000 (bottom)
 Mach =   0.000     Re =     0.350 e 6     Ncrit =   9.000

  alpha     CL        CD       CDp       Cm    Top Xtr Bot Xtr   Cpmin    Chinge    XCp    
 ------- -------- --------- --------- -------- ------- ------- -------- --------- ---------
   0.000   0.8923   0.00893   0.00420  -0.2157  0.8093  0.8292  -0.9172   0.0000   0.4909
   0.200   0.9138   0.00874   0.00409  -0.2151  0.8046  1.0000  -0.9349   0.0000   0.4843
   0.400   0.9322   0.00883   0.00415  -0.2143  0.7999  1.0000  -0.9504   0.0000   0.4786
   0.600   0.9525   0.00891   0.00419  -0.2140  0.7949  1.0000  -0.9672   0.0000   0.4731
   0.800   0.9744   0.00897   0.00419  -0.2139  0.7899  1.0000  -0.9850   0.0000   0.4677
   1.000   0.9978   0.00901   0.00416  -0.2142  0.7848  1.0000  -1.0043   0.0000   0.4625
   1.200   1.0238   0.00909   0.00414  -0.2150  0.7797  1.0000  -1.0279   0.0000   0.4576
   1.400   1.0449   0.00919   0.00422  -0.2148  0.7749  1.0000  -1.0485   0.0000   0.4529
   1.600   1.0641   0.00928   0.00431  -0.2142  0.7699  1.0000  -1.0679   0.0000   0.4484
   1.800   1.0847   0.00935   0.00436  -0.2138  0.7644  1.0000  -1.0883   0.0000   0.4440
   2.000   1.1066   0.00941   0.00437  -0.2137  0.7589  1.0000  -1.1119   0.0000   0.4397
   2.200   1.1310   0.00949   0.00438  -0.2142  0.7534  1.0000  -1.1392   0.0000   0.4357
   2.400   1.1535   0.00961   0.00452  -0.2143  0.7481  1.0000  -1.1658   0.0000   0.4319
   2.600   1.1717   0.00970   0.00463  -0.2135  0.7429  1.0000  -1.1935   0.0000   0.4280
   2.800   1.1914   0.00979   0.00472  -0.2130  0.7374  1.0000  -1.2227   0.0000   0.4243
   3.000   1.2121   0.00986   0.00476  -0.2127  0.7313  1.0000  -1.2529   0.0000   0.4207
   3.200   1.2355   0.00994   0.00478  -0.2129  0.7245  1.0000  -1.2854   0.0000   0.4173
   3.400   1.2556   0.01005   0.00488  -0.2125  0.7178  1.0000  -1.3154   0.0000   0.4140
   3.600   1.2728   0.01013   0.00499  -0.2114  0.7107  1.0000  -1.3432   0.0000   0.4106
   3.800   1.2919   0.01021   0.00506  -0.2107  0.7033  1.0000  -1.3728   0.0000   0.4073
   4.000   1.3134   0.01031   0.00510  -0.2106  0.6957  1.0000  -1.4045   0.0000   0.4043
   4.200   1.3335   0.01044   0.00522  -0.2102  0.6884  1.0000  -1.4360   0.0000   0.4013
   4.400   1.3450   0.01046   0.00527  -0.2077  0.6695  1.0000  -1.4660   0.0000   0.3978
   4.600   1.3573   0.01058   0.00531  -0.2054  0.6486  1.0000  -1.4968   0.0000   0.3944
   4.800   1.3721   0.01076   0.00538  -0.2038  0.6311  1.0000  -1.5617   0.0000   0.3913
   5.000   1.3878   0.01091   0.00555  -0.2025  0.6184  1.0000  -1.6859   0.0000   0.3884
   5.200   1.4016   0.01114   0.00568  -0.2007  0.6016  1.0000  -1.8074   0.0000   0.3854
   5.400   1.4148   0.01135   0.00587  -0.1989  0.5845  1.0000  -1.9287   0.0000   0.3825
   5.600   1.4255   0.01167   0.00607  -0.1965  0.5643  1.0000  -2.0440   0.0000   0.3795
   5.800   1.4376   0.01196   0.00632  -0.1945  0.5433  1.0000  -2.1651   0.0000   0.3767
   6.000   1.4479   0.01235   0.00661  -0.1922  0.5217  1.0000  -2.2814   0.0000   0.3738
   6.200   1.4554   0.01284   0.00697  -0.1893  0.4969  1.0000  -2.3888   0.0000   0.3708
   6.600   1.4654   0.01413   0.00793  -0.1828  0.4356  1.0000  -2.5857   0.0000   0.3650
   6.800   1.4661   0.01504   0.00858  -0.1790  0.3923  1.0000  -2.6682   0.0000   0.3620
   7.000   1.4651   0.01608   0.00935  -0.1749  0.3477  1.0000  -2.7436   0.0000   0.3590
   7.200   1.4645   0.01719   0.01026  -0.1711  0.3055  1.0000  -2.8273   0.0000   0.3561
   7.400   1.4630   0.01844   0.01121  -0.1673  0.2573  1.0000  -2.8981   0.0000   0.3533
   7.600   1.4622   0.01972   0.01221  -0.1637  0.2120  1.0000  -2.9667   0.0000   0.3507
   7.800   1.4589   0.02123   0.01340  -0.1599  0.1627  1.0000  -3.0222   0.0000   0.3480
   8.000   1.4521   0.02307   0.01484  -0.1558  0.1061  1.0000  -3.0611   0.0000   0.3453
   8.200   1.4419   0.02526   0.01661  -0.1513  0.0462  1.0000  -3.0831   0.0000   0.3427
   8.400   1.4395   0.02692   0.01809  -0.1480  0.0211  1.0000  -3.1226   0.0000   0.3402
   8.600   1.4474   0.02789   0.01913  -0.1460  0.0172  1.0000  -3.1766   0.0000   0.3379
   8.800   1.4570   0.02874   0.02005  -0.1443  0.0166  1.0000  -3.2696   0.0000   0.3358
   9.000   1.4662   0.02962   0.02103  -0.1427  0.0162  1.0000  -3.3647   0.0000   0.3337
   9.200   1.4750   0.03057   0.02207  -0.1410  0.0159  1.0000  -3.4592   0.0000   0.3317
   9.400   1.4829   0.03160   0.02319  -0.1393  0.0157  1.0000  -3.5515   0.0000   0.3297
   9.600   1.4900   0.03270   0.02440  -0.1376  0.0155  1.0000  -3.6419   0.0000   0.3277
   9.800   1.4966   0.03388   0.02567  -0.1358  0.0154  1.0000  -3.7307   0.0000   0.3258
  10.000   1.5019   0.03517   0.02706  -0.1340  0.0153  1.0000  -3.8154   0.0000   0.3239
  10.200   1.5064   0.03655   0.02854  -0.1321  0.0152  1.0000  -3.8971   0.0000   0.3220
  10.400   1.5103   0.03800   0.03009  -0.1303  0.0152  1.0000  -3.9768   0.0000   0.3202
  10.600   1.5127   0.03959   0.03178  -0.1283  0.0151  1.0000  -4.0504   0.0000   0.3184
  10.800   1.5148   0.04124   0.03359  -0.1265  0.0152  1.0000  -4.1177   0.0000   0.3167
  11.000   1.5162   0.04303   0.03548  -0.1247  0.0152  1.0000  -4.1847   0.0000   0.3151
  11.200   1.5173   0.04490   0.03745  -0.1229  0.0152  1.0000  -4.2509   0.0000   0.3135
  11.400   1.5183   0.04683   0.03949  -0.1212  0.0152  1.0000  -4.3163   0.0000   0.3119
  11.600   1.5186   0.04890   0.04166  -0.1195  0.0153  1.0000  -4.3780   0.0000   0.3104
  11.800   1.5192   0.05096   0.04382  -0.1180  0.0153  1.0000  -4.4535   0.0000   0.3090
  12.000   1.5198   0.05305   0.04602  -0.1164  0.0154  1.0000  -4.5620   0.0000   0.3075
  12.200   1.5202   0.05519   0.04826  -0.1150  0.0154  1.0000  -4.6691   0.0000   0.3062
  12.400   1.5214   0.05727   0.05043  -0.1135  0.0155  1.0000  -4.7802   0.0000   0.3048
  12.600   1.5232   0.05928   0.05255  -0.1121  0.0156  1.0000  -4.8945   0.0000   0.3034
  12.800   1.5252   0.06129   0.05465  -0.1108  0.0157  1.0000  -5.0095   0.0000   0.3020
  13.000   1.5277   0.06325   0.05672  -0.1094  0.0158  1.0000  -5.1267   0.0000   0.3006
  13.200   1.5308   0.06510   0.05867  -0.1080  0.0159  1.0000  -5.2462   0.0000   0.2991
  13.400   1.5348   0.06689   0.06057  -0.1066  0.0161  1.0000  -5.3694   0.0000   0.2976
  13.600   1.5400   0.06867   0.06246  -0.1052  0.0162  1.0000  -5.4964   0.0000   0.2961
  13.800   1.5463   0.07047   0.06438  -0.1037  0.0164  1.0000  -5.6255   0.0000   0.2945
  14.000   1.5548   0.07235   0.06641  -0.1022  0.0167  1.0000  -5.7532   0.0000   0.2928
  14.200   1.5701   0.07402   0.06824  -0.1007  0.0173  1.0000  -5.9087   0.0000   0.2909
  14.400   1.5737   0.07580   0.07011  -0.1000  0.0175  1.0000  -6.0514   0.0000   0.2899
  14.600   1.5760   0.07774   0.07214  -0.0994  0.0177  1.0000  -6.1874   0.0000   0.2889
  14.800   1.5783   0.07972   0.07423  -0.0988  0.0179  1.0000  -6.3214   0.0000   0.2880
  15.000   1.5802   0.08179   0.07643  -0.0982  0.0182  1.0000  -6.4486   0.0000   0.2872


