xflr5 v6.50

 Calculated polar for: S1210 12%

 1 1 Reynolds number fixed          Mach number fixed         

 xtrf =   1.000 (top)        1.000 (bottom)
 Mach =   0.000     Re =     0.350 e 6     Ncrit =   9.000

  alpha     CL        CD       CDp       Cm    Top Xtr Bot Xtr   Cpmin    Chinge    XCp    
 ------- -------- --------- --------- -------- ------- ------- -------- --------- ---------
   0.000   1.0630   0.01239   0.00513  -0.2466  0.5575  0.3393  -1.1967   0.0000   0.4801
   0.200   1.0863   0.01260   0.00524  -0.2468  0.5505  0.3417  -1.2159   0.0000   0.4750
   0.400   1.1097   0.01272   0.00534  -0.2469  0.5460  0.3437  -1.2352   0.0000   0.4700
   0.600   1.1337   0.01269   0.00533  -0.2472  0.5425  0.3497  -1.2551   0.0000   0.4653
   0.800   1.1573   0.01271   0.00538  -0.2475  0.5383  0.3569  -1.2750   0.0000   0.4608
   1.000   1.1803   0.01278   0.00547  -0.2476  0.5340  0.3631  -1.2951   0.0000   0.4564
   1.200   1.2032   0.01289   0.00558  -0.2476  0.5300  0.3694  -1.3165   0.0000   0.4522
   1.400   1.2258   0.01303   0.00575  -0.2476  0.5260  0.3757  -1.3430   0.0000   0.4481
   1.600   1.2483   0.01320   0.00587  -0.2476  0.5217  0.3817  -1.3711   0.0000   0.4441
   1.800   1.2712   0.01342   0.00603  -0.2477  0.5162  0.3874  -1.3995   0.0000   0.4404
   2.000   1.2960   0.01360   0.00624  -0.2482  0.5105  0.4015  -1.4292   0.0000   0.4368
   2.200   1.3180   0.01363   0.00634  -0.2481  0.5077  0.4129  -1.4575   0.0000   0.4332
   2.400   1.3397   0.01370   0.00645  -0.2479  0.5041  0.4238  -1.4916   0.0000   0.4297
   2.600   1.3619   0.01377   0.00656  -0.2478  0.5001  0.4370  -1.5304   0.0000   0.4263
   2.800   1.3845   0.01385   0.00671  -0.2479  0.4962  0.4550  -1.5795   0.0000   0.4231
   3.000   1.4067   0.01399   0.00686  -0.2478  0.4927  0.4714  -1.6290   0.0000   0.4199
   3.200   1.4295   0.01411   0.00705  -0.2479  0.4892  0.4944  -1.6798   0.0000   0.4169
   3.400   1.4514   0.01429   0.00724  -0.2478  0.4846  0.5162  -1.7299   0.0000   0.4139
   3.600   1.4745   0.01455   0.00751  -0.2480  0.4782  0.5430  -1.7817   0.0000   0.4110
   3.800   1.4969   0.01473   0.00774  -0.2480  0.4736  0.5693  -1.8333   0.0000   0.4082
   4.000   1.5185   0.01475   0.00798  -0.2478  0.4707  0.6016  -1.8846   0.0000   0.4054
   4.200   1.5400   0.01480   0.00815  -0.2476  0.4668  0.6360  -1.9406   0.0000   0.4027
   4.400   1.5610   0.01485   0.00830  -0.2473  0.4619  0.6748  -1.9988   0.0000   0.4000
   4.600   1.5816   0.01492   0.00845  -0.2468  0.4565  0.7202  -2.0568   0.0000   0.3973
   4.800   1.6011   0.01502   0.00863  -0.2462  0.4511  0.7759  -2.1138   0.0000   0.3947
   5.000   1.6166   0.01511   0.00880  -0.2446  0.4462  0.8544  -2.1653   0.0000   0.3919
   5.200   1.6284   0.01521   0.00893  -0.2423  0.4411  1.0000  -2.2117   0.0000   0.3891
   5.400   1.6497   0.01541   0.00914  -0.2421  0.4376  1.0000  -2.2720   0.0000   0.3867
   5.600   1.6699   0.01551   0.00930  -0.2417  0.4345  1.0000  -2.3314   0.0000   0.3843
   5.800   1.6899   0.01563   0.00945  -0.2412  0.4302  1.0000  -2.3911   0.0000   0.3820
   6.000   1.7095   0.01576   0.00961  -0.2406  0.4248  1.0000  -2.4507   0.0000   0.3797
   6.200   1.7284   0.01594   0.00977  -0.2399  0.4186  1.0000  -2.5098   0.0000   0.3774
   6.400   1.7465   0.01619   0.00997  -0.2391  0.4120  1.0000  -2.5681   0.0000   0.3751
   6.600   1.7651   0.01658   0.01041  -0.2384  0.4040  1.0000  -2.6270   0.0000   0.3729
   6.800   1.7841   0.01668   0.01061  -0.2377  0.4003  1.0000  -2.6872   0.0000   0.3708
   7.000   1.8029   0.01681   0.01082  -0.2370  0.3945  1.0000  -2.7475   0.0000   0.3686
   7.200   1.8207   0.01701   0.01104  -0.2361  0.3869  1.0000  -2.8068   0.0000   0.3665
   7.400   1.8367   0.01729   0.01128  -0.2348  0.3782  1.0000  -2.8637   0.0000   0.3643
   7.600   1.8516   0.01765   0.01162  -0.2334  0.3689  1.0000  -2.9190   0.0000   0.3622
   7.800   1.8694   0.01783   0.01187  -0.2325  0.3603  1.0000  -2.9789   0.0000   0.3601
   8.000   1.8831   0.01816   0.01218  -0.2309  0.3468  1.0000  -3.0331   0.0000   0.3580
   8.200   1.8932   0.01861   0.01257  -0.2285  0.3329  1.0000  -3.0816   0.0000   0.3557
   8.400   1.9038   0.01910   0.01301  -0.2263  0.3152  1.0000  -3.1310   0.0000   0.3535
   8.600   1.9117   0.01976   0.01357  -0.2237  0.2967  1.0000  -3.1760   0.0000   0.3513
   8.800   1.9160   0.02068   0.01433  -0.2205  0.2741  1.0000  -3.2174   0.0000   0.3490
   9.000   1.9217   0.02159   0.01514  -0.2177  0.2525  1.0000  -3.2655   0.0000   0.3468
   9.400   1.9232   0.02408   0.01733  -0.2107  0.2030  1.0000  -3.3449   0.0000   0.3424
   9.600   1.9243   0.02536   0.01849  -0.2074  0.1854  1.0000  -3.3849   0.0000   0.3402
   9.800   1.9302   0.02635   0.01944  -0.2049  0.1723  1.0000  -3.4339   0.0000   0.3382
  10.000   1.9330   0.02757   0.02061  -0.2020  0.1617  1.0000  -3.4766   0.0000   0.3362
  10.200   1.9404   0.02847   0.02154  -0.1998  0.1547  1.0000  -3.5328   0.0000   0.3343
  10.400   1.9455   0.02956   0.02262  -0.1975  0.1473  1.0000  -3.6807   0.0000   0.3324
  10.600   1.9469   0.03091   0.02396  -0.1947  0.1399  1.0000  -3.8111   0.0000   0.3305
  10.800   1.9514   0.03207   0.02516  -0.1924  0.1342  1.0000  -3.9590   0.0000   0.3287
  11.000   1.9562   0.03325   0.02638  -0.1902  0.1292  1.0000  -4.1110   0.0000   0.3269
  11.200   1.9590   0.03464   0.02779  -0.1879  0.1239  1.0000  -4.2538   0.0000   0.3252
  11.400   1.9592   0.03631   0.02947  -0.1856  0.1187  1.0000  -4.3832   0.0000   0.3236
  11.600   1.9590   0.03810   0.03129  -0.1833  0.1136  1.0000  -4.5104   0.0000   0.3220
  11.800   1.9646   0.03942   0.03269  -0.1817  0.1112  1.0000  -4.6725   0.0000   0.3205
  12.000   1.9680   0.04099   0.03433  -0.1800  0.1081  1.0000  -4.8226   0.0000   0.3190
  12.200   1.9699   0.04276   0.03614  -0.1784  0.1047  1.0000  -4.9652   0.0000   0.3177
  12.400   1.9694   0.04483   0.03825  -0.1767  0.1013  1.0000  -5.0937   0.0000   0.3164
  12.600   1.9675   0.04715   0.04061  -0.1752  0.0977  1.0000  -5.2133   0.0000   0.3152
  12.800   1.9645   0.04968   0.04319  -0.1738  0.0938  1.0000  -5.3253   0.0000   0.3142
  13.000   1.9660   0.05178   0.04538  -0.1727  0.0915  1.0000  -5.4637   0.0000   0.3131
  13.200   1.9679   0.05387   0.04754  -0.1718  0.0889  1.0000  -5.6034   0.0000   0.3121
  13.400   1.9678   0.05627   0.05010  -0.1709  0.0878  1.0000  -5.7461   0.0000   0.3112
  13.600   1.9663   0.05888   0.05277  -0.1701  0.0847  1.0000  -5.8657   0.0000   0.3104
  13.800   1.9588   0.06226   0.05615  -0.1694  0.0798  1.0000  -5.9456   0.0000   0.3098
  14.000   1.9481   0.06618   0.06010  -0.1689  0.0740  1.0000  -6.0025   0.0000   0.3095
  14.200   1.9460   0.06901   0.06298  -0.1684  0.0684  1.0000  -6.1094   0.0000   0.3089
  14.400   1.9366   0.07297   0.06697  -0.1682  0.0628  1.0000  -6.1689   0.0000   0.3087
  14.600   1.9253   0.07730   0.07130  -0.1682  0.0573  1.0000  -6.2135   0.0000   0.3087
  14.800   1.9184   0.08103   0.07508  -0.1682  0.0507  1.0000  -6.2815   0.0000   0.3085
  15.000   1.9037   0.08596   0.07999  -0.1685  0.0429  1.0000  -6.3019   0.0000   0.3088


