xflr5 v6.54

 Calculated polar for: AH 79-100 B AIRFOIL

 2 2 Reynolds number ~ 1/sqrt(CL)   Mach number ~ 1/sqrt(CL)  

 xtrf =   1.000 (top)        1.000 (bottom)
 Mach =   0.000     Re =     0.350 e 6     Ncrit =   9.000

  alpha     CL        CD       CDp       Cm    Top Xtr Bot Xtr   Cpmin    Chinge    XCp    
 ------- -------- --------- --------- -------- ------- ------- -------- --------- ---------
  -4.750   0.3484   0.01464   0.00968  -0.2038  0.8187  0.0252  -2.8233   0.0000   0.8438
  -4.500   0.3769   0.01503   0.00985  -0.2038  0.8159  0.0275  -2.5683   0.0000   0.7985
  -4.250   0.4072   0.01361   0.00824  -0.2054  0.8135  0.0306  -2.3485   0.0000   0.7614
  -4.000   0.4365   0.01341   0.00788  -0.2060  0.8109  0.0332  -2.1100   0.0000   0.7278
  -3.750   0.4658   0.01290   0.00715  -0.2064  0.8079  0.0346  -1.9405   0.0000   0.6984
  -3.500   0.4944   0.01263   0.00670  -0.2066  0.8045  0.0355  -1.7666   0.0000   0.6726
  -3.250   0.5248   0.01134   0.00523  -0.2076  0.8013  0.0375  -1.6300   0.0000   0.6498
  -3.000   0.5540   0.01099   0.00479  -0.2081  0.7980  0.0395  -1.4500   0.0000   0.6292
  -2.750   0.5839   0.01075   0.00443  -0.2087  0.7949  0.0414  -1.2764   0.0000   0.6104
  -2.500   0.6121   0.01051   0.00413  -0.2088  0.7908  0.0436  -1.1443   0.0000   0.5938
  -2.250   0.6408   0.01037   0.00389  -0.2091  0.7868  0.0456  -1.0301   0.0000   0.5785
  -2.000   0.6714   0.01002   0.00349  -0.2099  0.7833  0.0511  -0.9371   0.0000   0.5645
  -1.750   0.7015   0.00996   0.00332  -0.2105  0.7799  0.0574  -0.8452   0.0000   0.5514
  -1.500   0.7306   0.00978   0.00313  -0.2109  0.7756  0.0718  -0.8433   0.0000   0.5397
  -1.250   0.7632   0.00925   0.00303  -0.2125  0.7718  0.2292  -0.8645   0.0000   0.5292
  -1.000   0.7946   0.00890   0.00321  -0.2138  0.7682  0.4695  -0.8857   0.0000   0.5195
  -0.750   0.8235   0.00897   0.00335  -0.2141  0.7648  0.5410  -0.9071   0.0000   0.5100
  -0.500   0.8504   0.00905   0.00348  -0.2139  0.7604  0.5850  -0.9286   0.0000   0.5013
  -0.250   0.8777   0.00914   0.00358  -0.2138  0.7560  0.6177  -0.9510   0.0000   0.4930
   0.000   0.9055   0.00924   0.00368  -0.2137  0.7519  0.6559  -0.9739   0.0000   0.4851
   0.250   0.9318   0.00932   0.00382  -0.2133  0.7470  0.6936  -0.9959   0.0000   0.4777
   0.500   0.9577   0.00938   0.00394  -0.2129  0.7415  0.7285  -1.0177   0.0000   0.4707
   0.750   0.9846   0.00945   0.00401  -0.2126  0.7369  0.7559  -1.0402   0.0000   0.4641
   1.000   1.0098   0.00951   0.00413  -0.2120  0.7317  0.7886  -1.0617   0.0000   0.4578
   1.250   1.0337   0.00952   0.00422  -0.2111  0.7263  0.8291  -1.0825   0.0000   0.4517
   1.750   1.0783   0.00948   0.00426  -0.2085  0.7164  1.0000  -1.1222   0.0000   0.4403
   2.000   1.1063   0.00964   0.00437  -0.2087  0.7108  1.0000  -1.1485   0.0000   0.4352
   2.250   1.1351   0.00983   0.00445  -0.2090  0.7059  1.0000  -1.1759   0.0000   0.4304
   2.500   1.1613   0.01000   0.00463  -0.2087  0.6992  1.0000  -1.2023   0.0000   0.4257
   2.750   1.1887   0.01016   0.00473  -0.2087  0.6930  1.0000  -1.2317   0.0000   0.4212
   3.000   1.2151   0.01034   0.00488  -0.2084  0.6860  1.0000  -1.2627   0.0000   0.4169
   3.250   1.2416   0.01051   0.00501  -0.2082  0.6788  1.0000  -1.2940   0.0000   0.4127
   3.500   1.2678   0.01069   0.00520  -0.2079  0.6715  1.0000  -1.3251   0.0000   0.4087
   3.750   1.2937   0.01085   0.00534  -0.2075  0.6634  1.0000  -1.3607   0.0000   0.4048
   4.000   1.3188   0.01103   0.00551  -0.2070  0.6541  1.0000  -1.3989   0.0000   0.4010
   4.250   1.3443   0.01120   0.00563  -0.2065  0.6444  1.0000  -1.4542   0.0000   0.3973
   4.500   1.3686   0.01138   0.00582  -0.2058  0.6333  1.0000  -1.5279   0.0000   0.3937
   4.750   1.3925   0.01158   0.00603  -0.2050  0.6216  1.0000  -1.6020   0.0000   0.3902
   5.000   1.4167   0.01179   0.00625  -0.2043  0.6103  1.0000  -1.7027   0.0000   0.3868
   5.250   1.4404   0.01202   0.00648  -0.2035  0.5981  1.0000  -1.8732   0.0000   0.3835
   5.500   1.4636   0.01227   0.00671  -0.2026  0.5849  1.0000  -2.0468   0.0000   0.3803
   5.750   1.4861   0.01255   0.00698  -0.2015  0.5707  1.0000  -2.2232   0.0000   0.3771
   6.000   1.5077   0.01286   0.00728  -0.2003  0.5545  1.0000  -2.4007   0.0000   0.3740
   6.250   1.5290   0.01319   0.00763  -0.1991  0.5385  1.0000  -2.5970   0.0000   0.3710
   6.500   1.5493   0.01356   0.00799  -0.1976  0.5206  1.0000  -2.7983   0.0000   0.3680
   6.750   1.5683   0.01400   0.00838  -0.1960  0.5011  1.0000  -2.9991   0.0000   0.3650
   7.000   1.5856   0.01449   0.00883  -0.1940  0.4779  1.0000  -3.1972   0.0000   0.3620
   7.250   1.5999   0.01510   0.00933  -0.1915  0.4498  1.0000  -3.3866   0.0000   0.3589
   7.500   1.6123   0.01579   0.00993  -0.1887  0.4200  1.0000  -3.5707   0.0000   0.3559
   7.750   1.6218   0.01658   0.01059  -0.1855  0.3873  1.0000  -3.7491   0.0000   0.3528
   8.000   1.6283   0.01745   0.01133  -0.1817  0.3553  1.0000  -3.9275   0.0000   0.3497
   8.250   1.6317   0.01850   0.01222  -0.1776  0.3196  1.0000  -4.0919   0.0000   0.3465
   8.500   1.6330   0.01976   0.01329  -0.1733  0.2770  1.0000  -4.2463   0.0000   0.3434
   8.750   1.6297   0.02141   0.01468  -0.1686  0.2295  1.0000  -4.3766   0.0000   0.3403
   9.000   1.6238   0.02341   0.01638  -0.1639  0.1793  1.0000  -4.4921   0.0000   0.3374
   9.250   1.6161   0.02575   0.01841  -0.1593  0.1289  1.0000  -4.5960   0.0000   0.3347
   9.500   1.6097   0.02818   0.02059  -0.1553  0.0902  1.0000  -4.7044   0.0000   0.3321
   9.750   1.6074   0.03045   0.02273  -0.1520  0.0690  1.0000  -4.8321   0.0000   0.3298
  10.000   1.6071   0.03267   0.02494  -0.1491  0.0551  1.0000  -4.9639   0.0000   0.3276
  10.250   1.6047   0.03522   0.02749  -0.1462  0.0427  1.0000  -5.0701   0.0000   0.3255
  10.500   1.6014   0.03797   0.03028  -0.1435  0.0342  1.0000  -5.1584   0.0000   0.3235
  10.750   1.5992   0.04073   0.03307  -0.1411  0.0292  1.0000  -5.2622   0.0000   0.3216
  11.000   1.6015   0.04314   0.03559  -0.1392  0.0264  1.0000  -5.3893   0.0000   0.3199
  11.250   1.6037   0.04559   0.03811  -0.1376  0.0241  1.0000  -5.5301   0.0000   0.3182
  11.500   1.5986   0.04896   0.04157  -0.1357  0.0225  1.0000  -5.6177   0.0000   0.3168
  11.750   1.5952   0.05229   0.04503  -0.1340  0.0216  1.0000  -5.7042   0.0000   0.3154
  12.000   1.5960   0.05520   0.04809  -0.1326  0.0207  1.0000  -5.8400   0.0000   0.3140
  12.250   1.5963   0.05828   0.05129  -0.1314  0.0199  1.0000  -5.9770   0.0000   0.3127
  12.500   1.5966   0.06143   0.05455  -0.1303  0.0192  1.0000  -6.1158   0.0000   0.3115
  12.750   1.5973   0.06460   0.05782  -0.1293  0.0185  1.0000  -6.2591   0.0000   0.3104
  13.000   1.5979   0.06781   0.06112  -0.1284  0.0179  1.0000  -6.4069   0.0000   0.3093
  13.250   1.5976   0.07124   0.06462  -0.1275  0.0172  1.0000  -6.5423   0.0000   0.3082
  13.500   1.5989   0.07460   0.06806  -0.1260  0.0164  1.0000  -6.6580   0.0000   0.3067
  13.750   1.6037   0.07744   0.07107  -0.1254  0.0160  1.0000  -6.8279   0.0000   0.3055
  14.000   1.6088   0.08031   0.07412  -0.1247  0.0155  1.0000  -6.9865   0.0000   0.3043
  14.250   1.6140   0.08326   0.07723  -0.1239  0.0152  1.0000  -7.1370   0.0000   0.3031
  14.500   1.6189   0.08630   0.08045  -0.1232  0.0148  1.0000  -7.2808   0.0000   0.3019
  14.750   1.6231   0.08951   0.08384  -0.1226  0.0145  1.0000  -7.4148   0.0000   0.3008
  15.000   1.6258   0.09296   0.08748  -0.1222  0.0143  1.0000  -7.5336   0.0000   0.2998


