xflr5 v6.54

 Calculated polar for: FX 76-MP-120

 2 2 Reynolds number ~ 1/sqrt(CL)   Mach number ~ 1/sqrt(CL)  

 xtrf =   1.000 (top)        1.000 (bottom)
 Mach =   0.000     Re =     0.350 e 6     Ncrit =   9.000

  alpha     CL        CD       CDp       Cm    Top Xtr Bot Xtr   Cpmin    Chinge    XCp    
 ------- -------- --------- --------- -------- ------- ------- -------- --------- ---------
  -5.000   0.3925   0.01387   0.00812  -0.2116  0.7746  0.0283  -3.0635   0.0000   0.8014
  -4.750   0.4196   0.01341   0.00748  -0.2118  0.7740  0.0305  -2.8768   0.0000   0.7658
  -4.500   0.4470   0.01356   0.00761  -0.2120  0.7734  0.0330  -2.6476   0.0000   0.7339
  -4.250   0.4747   0.01355   0.00747  -0.2121  0.7727  0.0356  -2.4496   0.0000   0.7054
  -4.000   0.5021   0.01313   0.00694  -0.2123  0.7719  0.0387  -2.2726   0.0000   0.6807
  -3.750   0.5299   0.01323   0.00696  -0.2125  0.7711  0.0422  -2.0947   0.0000   0.6579
  -3.500   0.5569   0.01306   0.00668  -0.2126  0.7700  0.0462  -1.9385   0.0000   0.6378
  -3.250   0.5824   0.01306   0.00670  -0.2123  0.7685  0.0500  -1.7736   0.0000   0.6199
  -3.000   0.6082   0.01316   0.00673  -0.2120  0.7667  0.0540  -1.6149   0.0000   0.6033
  -2.750   0.6340   0.01289   0.00643  -0.2119  0.7649  0.0590  -1.4696   0.0000   0.5883
  -2.500   0.6605   0.01294   0.00644  -0.2117  0.7631  0.0641  -1.3326   0.0000   0.5741
  -2.250   0.6872   0.01278   0.00621  -0.2117  0.7613  0.0694  -1.2081   0.0000   0.5610
  -2.000   0.7145   0.01277   0.00618  -0.2117  0.7597  0.0759  -1.0758   0.0000   0.5488
  -1.750   0.7423   0.01269   0.00603  -0.2118  0.7582  0.0832  -0.9681   0.0000   0.5374
  -1.500   0.7707   0.01269   0.00599  -0.2121  0.7568  0.0921  -0.9856   0.0000   0.5267
  -1.250   0.7995   0.01267   0.00594  -0.2125  0.7554  0.1035  -1.0034   0.0000   0.5168
  -1.000   0.8220   0.01270   0.00601  -0.2116  0.7525  0.1155  -1.0180   0.0000   0.5080
  -0.750   0.8467   0.01272   0.00607  -0.2112  0.7496  0.1324  -1.0347   0.0000   0.4996
  -0.500   0.8729   0.01271   0.00610  -0.2110  0.7471  0.1571  -1.0531   0.0000   0.4915
  -0.250   0.9001   0.01262   0.00612  -0.2111  0.7449  0.2024  -1.0728   0.0000   0.4839
   0.000   0.9283   0.01243   0.00617  -0.2115  0.7430  0.3059  -1.0936   0.0000   0.4768
   0.250   0.9551   0.01186   0.00635  -0.2118  0.7412  0.6131  -1.1146   0.0000   0.4703
   0.500   0.9698   0.01173   0.00669  -0.2088  0.7374  0.8135  -1.1285   0.0000   0.4635
   0.750   0.9864   0.01167   0.00675  -0.2063  0.7336  0.8915  -1.1441   0.0000   0.4569
   1.000   1.0191   0.01163   0.00670  -0.2073  0.7310  1.0000  -1.1694   0.0000   0.4508
   1.250   1.0482   0.01173   0.00669  -0.2077  0.7286  1.0000  -1.1935   0.0000   0.4451
   1.500   1.0789   0.01183   0.00667  -0.2084  0.7265  1.0000  -1.2193   0.0000   0.4397
   1.750   1.1019   0.01205   0.00686  -0.2076  0.7225  1.0000  -1.2404   0.0000   0.4346
   2.000   1.1260   0.01222   0.00699  -0.2070  0.7184  1.0000  -1.2631   0.0000   0.4297
   2.250   1.1535   0.01231   0.00701  -0.2071  0.7151  1.0000  -1.2893   0.0000   0.4250
   2.500   1.1838   0.01236   0.00697  -0.2076  0.7125  1.0000  -1.3182   0.0000   0.4205
   2.750   1.2087   0.01253   0.00710  -0.2072  0.7085  1.0000  -1.3441   0.0000   0.4162
   3.000   1.2308   0.01269   0.00726  -0.2062  0.7034  1.0000  -1.3693   0.0000   0.4119
   3.250   1.2588   0.01273   0.00725  -0.2063  0.6996  1.0000  -1.3996   0.0000   0.4079
   3.500   1.2902   0.01275   0.00718  -0.2071  0.6966  1.0000  -1.4333   0.0000   0.4041
   3.750   1.3078   0.01298   0.00745  -0.2052  0.6903  1.0000  -1.4575   0.0000   0.4001
   4.000   1.3341   0.01303   0.00747  -0.2050  0.6855  1.0000  -1.4892   0.0000   0.3965
   4.250   1.3652   0.01304   0.00740  -0.2057  0.6818  1.0000  -1.5273   0.0000   0.3931
   4.500   1.3817   0.01326   0.00768  -0.2036  0.6746  1.0000  -1.5548   0.0000   0.3894
   4.750   1.4086   0.01329   0.00767  -0.2035  0.6694  1.0000  -1.5926   0.0000   0.3861
   5.000   1.4310   0.01343   0.00783  -0.2026  0.6632  1.0000  -1.6269   0.0000   0.3828
   5.250   1.4529   0.01355   0.00794  -0.2015  0.6563  1.0000  -1.6628   0.0000   0.3795
   5.500   1.4775   0.01364   0.00801  -0.2010  0.6499  1.0000  -1.7024   0.0000   0.3765
   5.750   1.4961   0.01380   0.00819  -0.1993  0.6415  1.0000  -1.7377   0.0000   0.3732
   6.000   1.5177   0.01395   0.00834  -0.1981  0.6338  1.0000  -1.7783   0.0000   0.3702
   6.250   1.5376   0.01410   0.00849  -0.1967  0.6251  1.0000  -1.8176   0.0000   0.3671
   6.500   1.5542   0.01434   0.00875  -0.1947  0.6157  1.0000  -1.8548   0.0000   0.3641
   6.750   1.5766   0.01451   0.00887  -0.1937  0.6070  1.0000  -1.8998   0.0000   0.3613
   7.000   1.5882   0.01479   0.00919  -0.1907  0.5962  1.0000  -1.9338   0.0000   0.3580
   7.250   1.6008   0.01510   0.00951  -0.1879  0.5853  1.0000  -1.9712   0.0000   0.3549
   7.500   1.6159   0.01542   0.00980  -0.1857  0.5746  1.0000  -2.0120   0.0000   0.3520
   7.750   1.6313   0.01577   0.01011  -0.1835  0.5632  1.0000  -2.0552   0.0000   0.3492
   8.000   1.6399   0.01626   0.01062  -0.1802  0.5508  1.0000  -2.0917   0.0000   0.3461
   8.250   1.6495   0.01679   0.01116  -0.1772  0.5384  1.0000  -2.1683   0.0000   0.3432
   8.500   1.6593   0.01738   0.01174  -0.1743  0.5258  1.0000  -2.3048   0.0000   0.3404
   8.750   1.6689   0.01803   0.01237  -0.1715  0.5132  1.0000  -2.4515   0.0000   0.3377
   9.000   1.6777   0.01875   0.01307  -0.1687  0.5003  1.0000  -2.5984   0.0000   0.3350
   9.250   1.6863   0.01954   0.01384  -0.1659  0.4873  1.0000  -2.7468   0.0000   0.3324
   9.500   1.6923   0.02046   0.01476  -0.1629  0.4738  1.0000  -2.8875   0.0000   0.3298
   9.750   1.6981   0.02146   0.01577  -0.1599  0.4603  1.0000  -3.0292   0.0000   0.3273
  10.000   1.7039   0.02252   0.01683  -0.1571  0.4468  1.0000  -3.1733   0.0000   0.3248
  10.250   1.7093   0.02365   0.01797  -0.1544  0.4332  1.0000  -3.3178   0.0000   0.3224
  10.500   1.7140   0.02487   0.01918  -0.1516  0.4194  1.0000  -3.4616   0.0000   0.3201
  10.750   1.7174   0.02621   0.02053  -0.1489  0.4048  1.0000  -3.6015   0.0000   0.3178
  11.000   1.7191   0.02770   0.02199  -0.1460  0.3894  1.0000  -3.7360   0.0000   0.3155
  11.250   1.7186   0.02937   0.02364  -0.1430  0.3724  1.0000  -3.8622   0.0000   0.3133
  11.500   1.7173   0.03119   0.02541  -0.1401  0.3549  1.0000  -3.9856   0.0000   0.3111
  11.750   1.7158   0.03310   0.02728  -0.1373  0.3377  1.0000  -4.1094   0.0000   0.3090
  12.000   1.7149   0.03508   0.02921  -0.1347  0.3211  1.0000  -4.2364   0.0000   0.3070
  12.250   1.7151   0.03707   0.03119  -0.1324  0.3050  1.0000  -4.3694   0.0000   0.3051
  12.500   1.7151   0.03915   0.03326  -0.1302  0.2890  1.0000  -4.5026   0.0000   0.3033
  12.750   1.7147   0.04135   0.03546  -0.1280  0.2728  1.0000  -4.6345   0.0000   0.3015
  13.000   1.7141   0.04366   0.03775  -0.1260  0.2565  1.0000  -4.7659   0.0000   0.2998
  13.250   1.7131   0.04609   0.04016  -0.1241  0.2402  1.0000  -4.8959   0.0000   0.2982
  13.500   1.7112   0.04866   0.04271  -0.1223  0.2240  1.0000  -5.0221   0.0000   0.2967
  13.750   1.7089   0.05138   0.04540  -0.1206  0.2079  1.0000  -5.1458   0.0000   0.2952
  14.000   1.7058   0.05426   0.04825  -0.1190  0.1917  1.0000  -5.2748   0.0000   0.2938
  14.250   1.7019   0.05732   0.05127  -0.1175  0.1757  1.0000  -5.4007   0.0000   0.2925
  14.500   1.6977   0.06048   0.05441  -0.1162  0.1590  1.0000  -5.5246   0.0000   0.2913
  14.750   1.6926   0.06386   0.05776  -0.1150  0.1409  1.0000  -5.6416   0.0000   0.2902
  15.000   1.6844   0.06770   0.06155  -0.1138  0.1222  1.0000  -5.7393   0.0000   0.2893


