  
       XFOIL         Version 6.99
  
 Calculated polar for: generation/a0                                   
  
 1 1 Reynolds number fixed          Mach number fixed         
  
 xtrf =   1.000 (top)        1.000 (bottom)  
 Mach =   0.000     Re =     0.350 e 6     Ncrit =   9.000  9.000
  
   alpha    CL        CD       CDp       CM     Top_Xtr  Bot_Xtr  Top_Itr  Bot_Itr
  ------ -------- --------- --------- -------- -------- -------- -------- --------
  -2.000   0.7574   0.00961   0.00163  -0.2284   0.7608   0.2897  18.6970 113.4763
  -1.500   0.8128   0.00981   0.00165  -0.2280   0.7342   0.3279  20.3691 115.7805
  -1.000   0.8677   0.01003   0.00168  -0.2276   0.7087   0.3637  21.9658 117.9477
  -0.500   0.9219   0.01019   0.00174  -0.2271   0.6847   0.3988  23.4698 120.0800
   0.000   0.9765   0.01037   0.00180  -0.2268   0.6623   0.4355  24.8767 122.3238
   0.500   1.0313   0.01055   0.00190  -0.2265   0.6415   0.4851  26.1814 125.3565
   1.000   1.0858   0.01073   0.00204  -0.2262   0.6216   0.5539  27.4255 129.5680
   1.500   1.1397   0.01093   0.00225  -0.2258   0.6036   0.6475  28.5533 135.3258
   2.000   1.1916   0.01115   0.00246  -0.2248   0.5872   0.7481  29.5835 141.6129
   2.500   1.2329   0.01121   0.00263  -0.2213   0.5718   0.8845  30.5501 150.4214
   3.000   1.2801   0.01146   0.00262  -0.2194   0.5560   1.0000  31.5362 160.0000
   3.500   1.3332   0.01190   0.00272  -0.2190   0.5410   1.0000  32.4805 160.0000
   4.000   1.3860   0.01236   0.00285  -0.2185   0.5274   1.0000  33.3331 160.0000
   4.500   1.4371   0.01283   0.00295  -0.2176   0.5128   1.0000  34.2546 160.0000
   5.000   1.4876   0.01332   0.00307  -0.2167   0.4989   1.0000  35.1261 160.0000
   5.500   1.5353   0.01379   0.00315  -0.2151   0.4826   1.0000  36.1576 160.0000
   6.000   1.5822   0.01429   0.00325  -0.2135   0.4668   1.0000  37.1527 160.0000
   6.500   1.6275   0.01481   0.00336  -0.2115   0.4504   1.0000  38.1927 160.0000
   7.000   1.6713   0.01537   0.00349  -0.2093   0.4341   1.0000  39.2304 160.0000
   7.500   1.7115   0.01597   0.00361  -0.2064   0.4154   1.0000  40.4247 160.0000
   8.000   1.7463   0.01668   0.00376  -0.2025   0.3939   1.0000  41.8050 160.0000
   8.500   1.7789   0.01751   0.00398  -0.1984   0.3690   1.0000  43.4173 160.0000
   9.000   1.8060   0.01865   0.00434  -0.1934   0.3358   1.0000  45.6002 160.0000
   9.500   1.8251   0.02037   0.00500  -0.1874   0.2953   1.0000  48.2937 160.0000
  10.000   1.8381   0.02267   0.00608  -0.1808   0.2554   1.0000  50.9644 160.0000
  10.500   1.8496   0.02529   0.00744  -0.1746   0.2203   1.0000  53.3292 160.0000
  11.000   1.8571   0.02839   0.00917  -0.1685   0.1892   1.0000  55.4537 160.0000
  11.500   1.8617   0.03199   0.01128  -0.1628   0.1626   1.0000  57.3185 160.0000
  12.000   1.8638   0.03614   0.01385  -0.1577   0.1414   1.0000  58.8473 160.0000
  12.500   1.8664   0.04067   0.01676  -0.1535   0.1263   1.0000  59.9552 160.0000
  13.000   1.8706   0.04544   0.01992  -0.1502   0.1147   1.0000  60.8378 160.0000
  13.500   1.8738   0.05071   0.02349  -0.1476   0.1044   1.0000  61.6365 160.0000
  14.000   1.8746   0.05664   0.02760  -0.1456   0.0950   1.0000  62.3896 160.0000
  14.500   1.8712   0.06349   0.03251  -0.1442   0.0859   1.0000  63.1287 160.0000
  15.000   1.8665   0.07095   0.03797  -0.1436   0.0762   1.0000  63.9645 160.0000
