  
       XFOIL         Version 6.99
  
 Calculated polar for: generation/a0                                   
  
 1 1 Reynolds number fixed          Mach number fixed         
  
 xtrf =   1.000 (top)        1.000 (bottom)  
 Mach =   0.000     Re =     0.350 e 6     Ncrit =   9.000  9.000
  
   alpha    CL        CD       CDp       CM     Top_Xtr  Bot_Xtr  Top_Itr  Bot_Itr
  ------ -------- --------- --------- -------- -------- -------- -------- --------
  -2.000   0.7247   0.01015   0.00155  -0.2167   0.6888   0.2271  23.1001 109.7964
  -1.500   0.7799   0.01028   0.00168  -0.2165   0.6649   0.3054  24.5947 114.5304
  -1.000   0.8350   0.01048   0.00174  -0.2162   0.6441   0.3490  25.8950 117.1776
   0.000   0.9468   0.01079   0.00194  -0.2163   0.6100   0.4582  28.0314 123.8581
   0.500   1.0034   0.01088   0.00212  -0.2165   0.5953   0.5511  28.9526 129.5350
   1.000   1.0581   0.01098   0.00238  -0.2162   0.5818   0.6825  29.8019 137.6005
   1.500   1.1094   0.01112   0.00260  -0.2150   0.5696   0.7884  30.5627 144.2891
   2.000   1.1480   0.01106   0.00262  -0.2109   0.5592   1.0000  31.2174 160.0000
   2.500   1.2046   0.01147   0.00273  -0.2112   0.5484   1.0000  31.8948 160.0000
   3.000   1.2597   0.01185   0.00289  -0.2112   0.5378   1.0000  32.5634 160.0000
   3.500   1.3145   0.01230   0.00302  -0.2112   0.5275   1.0000  33.2108 160.0000
   4.000   1.3681   0.01271   0.00314  -0.2108   0.5169   1.0000  33.8765 160.0000
   4.500   1.4203   0.01311   0.00330  -0.2103   0.5063   1.0000  34.5458 160.0000
   5.000   1.4725   0.01357   0.00341  -0.2097   0.4958   1.0000  35.2034 160.0000
   5.500   1.5231   0.01400   0.00350  -0.2088   0.4845   1.0000  35.9192 160.0000
   6.000   1.5713   0.01439   0.00360  -0.2075   0.4724   1.0000  36.6880 160.0000
   6.500   1.6183   0.01482   0.00367  -0.2059   0.4592   1.0000  37.5250 160.0000
   7.000   1.6641   0.01529   0.00374  -0.2041   0.4459   1.0000  38.3765 160.0000
   7.500   1.7082   0.01580   0.00381  -0.2021   0.4322   1.0000  39.2528 160.0000
   8.000   1.7494   0.01633   0.00389  -0.1995   0.4167   1.0000  40.2548 160.0000
   8.500   1.7863   0.01692   0.00398  -0.1960   0.3991   1.0000  41.3989 160.0000
   9.000   1.8179   0.01763   0.00411  -0.1917   0.3790   1.0000  42.7124 160.0000
   9.500   1.8448   0.01857   0.00435  -0.1867   0.3522   1.0000  44.4875 160.0000
  10.000   1.8627   0.02008   0.00484  -0.1804   0.3160   1.0000  46.9176 160.0000
  10.500   1.8726   0.02230   0.00582  -0.1734   0.2735   1.0000  49.7856 160.0000
  11.000   1.8754   0.02526   0.00735  -0.1662   0.2324   1.0000  52.5765 160.0000
  11.500   1.8727   0.02896   0.00946  -0.1592   0.1972   1.0000  55.0068 160.0000
  12.500   1.8705   0.03756   0.01483  -0.1488   0.1477   1.0000  58.5236 160.0000
  13.000   1.8662   0.04293   0.01841  -0.1449   0.1307   1.0000  59.7840 160.0000
  13.500   1.8603   0.04908   0.02266  -0.1421   0.1159   1.0000  60.9055 160.0000
  14.000   1.8535   0.05590   0.02750  -0.1401   0.1030   1.0000  61.9209 160.0000
  14.500   1.8461   0.06331   0.03289  -0.1391   0.0910   1.0000  62.8932 160.0000
  15.000   1.8361   0.07153   0.03904  -0.1388   0.0786   1.0000  63.9494 160.0000
