  
       XFOIL         Version 6.99
  
 Calculated polar for: Generation/a0.dat                               
  
 1 1 Reynolds number fixed          Mach number fixed         
  
 xtrf =   1.000 (top)        1.000 (bottom)  
 Mach =   0.000     Re =     0.350 e 6     Ncrit =   9.000  9.000
  
   alpha    CL        CD       CDp       CM     Top_Xtr  Bot_Xtr  Top_Itr  Bot_Itr
  ------ -------- --------- --------- -------- -------- -------- -------- --------
   0.000   0.7207   0.01160   0.00341  -0.1531   0.7363   0.1027  18.6726 105.9079
   0.250   0.7492   0.01098   0.00327  -0.1534   0.7328   0.2715  18.8965 115.7626
   0.500   0.7755   0.01058   0.00333  -0.1533   0.7280   0.4489  19.2031 126.0782
   0.750   0.7988   0.00999   0.00339  -0.1524   0.7227   0.6794  19.5485 139.6908
   0.000   0.7207   0.01160   0.00341  -0.1531   0.7363   0.1027  18.6726 105.9079
   0.250   0.7492   0.01098   0.00327  -0.1534   0.7328   0.2715  18.8965 115.7626
   0.500   0.7755   0.01058   0.00333  -0.1533   0.7280   0.4489  19.2031 126.0782
   0.750   0.7988   0.00999   0.00339  -0.1524   0.7227   0.6794  19.5485 139.6908
   1.250   0.8597   0.00940   0.00307  -0.1527   0.7136   1.0000  20.1282 160.0000
   1.500   0.8867   0.00942   0.00303  -0.1525   0.7072   1.0000  20.5415 160.0000
   1.750   0.9153   0.00940   0.00288  -0.1524   0.7021   1.0000  20.8723 160.0000
   2.000   0.9424   0.00945   0.00283  -0.1522   0.6957   1.0000  21.2810 160.0000
   2.250   0.9698   0.00946   0.00275  -0.1520   0.6890   1.0000  21.7135 160.0000
   2.500   0.9978   0.00949   0.00264  -0.1519   0.6831   1.0000  22.0917 160.0000
   2.750   1.0241   0.00954   0.00263  -0.1516   0.6752   1.0000  22.6047 160.0000
   3.000   1.0522   0.00958   0.00249  -0.1515   0.6689   1.0000  23.0089 160.0000
   3.250   1.0778   0.00966   0.00252  -0.1510   0.6599   1.0000  23.5895 160.0000
   3.500   1.1051   0.00972   0.00242  -0.1508   0.6524   1.0000  24.0727 160.0000
   3.750   1.1306   0.00981   0.00241  -0.1503   0.6427   1.0000  24.6982 160.0000
   4.000   1.1567   0.00991   0.00237  -0.1499   0.6335   1.0000  25.2926 160.0000
   4.250   1.1826   0.01002   0.00231  -0.1495   0.6237   1.0000  25.9191 160.0000
   4.500   1.2074   0.01016   0.00233  -0.1490   0.6128   1.0000  26.6226 160.0000
   4.750   1.2324   0.01031   0.00231  -0.1484   0.6020   1.0000  27.3100 160.0000
   5.000   1.2572   0.01049   0.00228  -0.1478   0.5911   1.0000  28.0114 160.0000
   5.250   1.2809   0.01068   0.00231  -0.1471   0.5787   1.0000  28.7995 160.0000
   5.500   1.3043   0.01090   0.00234  -0.1463   0.5665   1.0000  29.5811 160.0000
   5.750   1.3273   0.01114   0.00237  -0.1455   0.5540   1.0000  30.3718 160.0000
   6.000   1.3495   0.01141   0.00240  -0.1445   0.5411   1.0000  31.1908 160.0000
   6.250   1.3709   0.01171   0.00244  -0.1434   0.5278   1.0000  32.0290 160.0000
   6.500   1.3915   0.01202   0.00251  -0.1422   0.5138   1.0000  32.9140 160.0000
   6.750   1.4112   0.01235   0.00258  -0.1408   0.4996   1.0000  33.8083 160.0000
   7.000   1.4298   0.01271   0.00266  -0.1393   0.4852   1.0000  34.7160 160.0000
   7.250   1.4474   0.01309   0.00275  -0.1376   0.4709   1.0000  35.6119 160.0000
   7.500   1.4635   0.01351   0.00284  -0.1357   0.4566   1.0000  36.5103 160.0000
   7.750   1.4771   0.01395   0.00293  -0.1333   0.4424   1.0000  37.4066 160.0000
   8.000   1.4877   0.01443   0.00302  -0.1304   0.4283   1.0000  38.2905 160.0000
   8.250   1.4974   0.01498   0.00314  -0.1274   0.4142   1.0000  39.1808 160.0000
   8.500   1.5066   0.01560   0.00331  -0.1246   0.3997   1.0000  40.0954 160.0000
   8.750   1.5154   0.01629   0.00352  -0.1218   0.3850   1.0000  41.0265 160.0000
   9.250   1.5334   0.01785   0.00409  -0.1167   0.3551   1.0000  42.9270 160.0000
   9.500   1.5421   0.01873   0.00444  -0.1143   0.3401   1.0000  43.8881 160.0000
   9.750   1.5506   0.01967   0.00484  -0.1120   0.3251   1.0000  44.8469 160.0000
  10.000   1.5585   0.02069   0.00529  -0.1097   0.3100   1.0000  45.8193 160.0000
  10.250   1.5662   0.02176   0.00579  -0.1075   0.2952   1.0000  46.7784 160.0000
  10.500   1.5737   0.02290   0.00633  -0.1053   0.2806   1.0000  47.7283 160.0000
  10.750   1.5808   0.02410   0.00693  -0.1032   0.2662   1.0000  48.6655 160.0000
  11.000   1.5875   0.02537   0.00758  -0.1011   0.2521   1.0000  49.5959 160.0000
  11.250   1.5940   0.02670   0.00828  -0.0991   0.2383   1.0000  50.5087 160.0000
  11.500   1.6002   0.02809   0.00903  -0.0972   0.2253   1.0000  51.3780 160.0000
  11.750   1.6057   0.02957   0.00985  -0.0953   0.2132   1.0000  52.1933 160.0000
  12.250   1.6174   0.03263   0.01160  -0.0919   0.1903   1.0000  53.7638 160.0000
  12.500   1.6235   0.03421   0.01253  -0.0903   0.1797   1.0000  54.5006 160.0000
  12.750   1.6282   0.03595   0.01358  -0.0888   0.1699   1.0000  55.1857 160.0000
  13.000   1.6327   0.03778   0.01471  -0.0873   0.1603   1.0000  55.8691 160.0000
  13.250   1.6392   0.03948   0.01577  -0.0861   0.1513   1.0000  56.5215 160.0000
  13.500   1.6427   0.04152   0.01707  -0.0847   0.1432   1.0000  57.1184 160.0000
  13.750   1.6477   0.04346   0.01832  -0.0836   0.1349   1.0000  57.7364 160.0000
  14.000   1.6524   0.04550   0.01965  -0.0825   0.1273   1.0000  58.3125 160.0000
  14.250   1.6545   0.04785   0.02122  -0.0815   0.1200   1.0000  58.8830 160.0000
  14.500   1.6594   0.04996   0.02264  -0.0806   0.1128   1.0000  59.4493 160.0000
  14.750   1.6589   0.05273   0.02457  -0.0798   0.1061   1.0000  59.9906 160.0000
  15.000   1.6642   0.05492   0.02607  -0.0791   0.0992   1.0000  60.5680 160.0000
