  
       XFOIL         Version 6.99
  
 Calculated polar for: generation/a1                                   
  
 1 1 Reynolds number fixed          Mach number fixed         
  
 xtrf =   1.000 (top)        1.000 (bottom)  
 Mach =   0.000     Re =     0.350 e 6     Ncrit =   9.000  9.000
  
   alpha    CL        CD       CDp       CM     Top_Xtr  Bot_Xtr  Top_Itr  Bot_Itr
  ------ -------- --------- --------- -------- -------- -------- -------- --------
  -2.000   0.7150   0.00951   0.00175  -0.2218   0.8247   0.2347  14.5993 110.0667
  -1.500   0.7751   0.00940   0.00176  -0.2227   0.8079   0.3241  15.6894 115.5144
  -1.000   0.8333   0.00939   0.00176  -0.2232   0.7913   0.3864  16.7602 119.3280
  -0.500   0.8905   0.00938   0.00179  -0.2235   0.7744   0.4664  17.8509 124.2650
   0.000   0.9469   0.00935   0.00188  -0.2236   0.7577   0.5693  18.9250 130.6152
   0.500   1.0004   0.00936   0.00200  -0.2229   0.7402   0.6908  20.0452 138.1682
   1.000   1.0458   0.00933   0.00212  -0.2203   0.7217   0.8204  21.2285 146.3808
   1.500   1.0851   0.00925   0.00200  -0.2163   0.7034   1.0000  22.4014 160.0000
   2.000   1.1384   0.00955   0.00200  -0.2158   0.6845   1.0000  23.6132 160.0000
   2.500   1.1904   0.00988   0.00197  -0.2150   0.6641   1.0000  24.9188 160.0000
   3.000   1.2403   0.01022   0.00200  -0.2138   0.6432   1.0000  26.2576 160.0000
   3.500   1.2889   0.01059   0.00203  -0.2124   0.6211   1.0000  27.6752 160.0000
   4.000   1.3373   0.01103   0.00206  -0.2109   0.6000   1.0000  29.0279 160.0000
   4.500   1.3829   0.01145   0.00213  -0.2089   0.5765   1.0000  30.5367 160.0000
   5.000   1.4286   0.01196   0.00220  -0.2069   0.5550   1.0000  31.9143 160.0000
   5.500   1.4711   0.01247   0.00229  -0.2044   0.5305   1.0000  33.4872 160.0000
   6.000   1.5115   0.01309   0.00239  -0.2014   0.5070   1.0000  34.9989 160.0000
   6.500   1.5484   0.01369   0.00252  -0.1978   0.4820   1.0000  36.6018 160.0000
   7.000   1.5837   0.01442   0.00268  -0.1940   0.4578   1.0000  38.1596 160.0000
   7.500   1.6177   0.01521   0.00290  -0.1900   0.4322   1.0000  39.8035 160.0000
   8.000   1.6494   0.01612   0.00319  -0.1857   0.4049   1.0000  41.5711 160.0000
   8.500   1.6733   0.01736   0.00359  -0.1803   0.3681   1.0000  43.9601 160.0000
   9.000   1.6915   0.01901   0.00422  -0.1741   0.3217   1.0000  47.0166 160.0000
   9.500   1.7050   0.02116   0.00518  -0.1677   0.2718   1.0000  50.3350 160.0000
  10.000   1.7160   0.02370   0.00645  -0.1615   0.2276   1.0000  53.3095 160.0000
  10.500   1.7274   0.02645   0.00792  -0.1559   0.1911   1.0000  55.8105 160.0000
  11.000   1.7369   0.02957   0.00968  -0.1506   0.1593   1.0000  58.0519 160.0000
  11.500   1.7457   0.03300   0.01171  -0.1458   0.1326   1.0000  59.9838 160.0000
  12.000   1.7535   0.03678   0.01402  -0.1415   0.1088   1.0000  61.7953 160.0000
  12.500   1.7585   0.04112   0.01677  -0.1376   0.0864   1.0000  63.5951 160.0000
  13.000   1.7518   0.04709   0.02073  -0.1338   0.0539   1.0000  66.5640 160.0000
  13.500   1.7288   0.05557   0.02684  -0.1302   0.0267   1.0000  70.0652 160.0000
  14.000   1.7175   0.06337   0.03265  -0.1282   0.0213   1.0000  71.0997 160.0000
  14.500   1.7104   0.07114   0.03866  -0.1272   0.0191   1.0000  71.6006 160.0000
  15.000   1.6929   0.08094   0.04670  -0.1273   0.0175   1.0000  71.9486 160.0000
