  
       XFOIL         Version 6.99
  
 Calculated polar for: generation/a1                                   
  
 1 1 Reynolds number fixed          Mach number fixed         
  
 xtrf =   1.000 (top)        1.000 (bottom)  
 Mach =   0.000     Re =     0.350 e 6     Ncrit =   9.000  9.000
  
   alpha    CL        CD       CDp       CM     Top_Xtr  Bot_Xtr  Top_Itr  Bot_Itr
  ------ -------- --------- --------- -------- -------- -------- -------- --------
  -2.000   0.7875   0.01048   0.00176  -0.2341   0.6718   0.2817  24.3110 112.7992
  -1.500   0.8417   0.01091   0.00194  -0.2335   0.6453   0.3174  25.9519 114.9437
  -1.000   0.8971   0.01116   0.00207  -0.2332   0.6233   0.3409  27.3112 116.3649
   0.000   1.0094   0.01160   0.00218  -0.2330   0.5877   0.3747  29.5087 118.4157
   0.500   1.0660   0.01184   0.00227  -0.2331   0.5734   0.3965  30.3904 119.7452
   1.000   1.1231   0.01210   0.00240  -0.2333   0.5607   0.4242  31.1757 121.4387
   1.500   1.1802   0.01236   0.00255  -0.2335   0.5488   0.4655  31.9081 123.9600
   2.000   1.2372   0.01257   0.00278  -0.2338   0.5378   0.5264  32.5887 127.6934
   2.500   1.2941   0.01285   0.00302  -0.2340   0.5276   0.6153  33.2216 133.1526
   3.000   1.3484   0.01311   0.00324  -0.2336   0.5159   0.7263  33.9494 140.0509
   3.500   1.3912   0.01310   0.00347  -0.2305   0.5055   0.8845  34.5946 150.2566
   4.000   1.4401   0.01343   0.00351  -0.2290   0.4961   1.0000  35.1761 160.0000
   4.500   1.4930   0.01385   0.00358  -0.2284   0.4846   1.0000  35.8942 160.0000
   5.000   1.5443   0.01424   0.00368  -0.2275   0.4727   1.0000  36.6355 160.0000
   5.500   1.5944   0.01468   0.00373  -0.2264   0.4599   1.0000  37.4429 160.0000
   6.000   1.6438   0.01515   0.00379  -0.2252   0.4475   1.0000  38.2178 160.0000
   6.500   1.6917   0.01566   0.00384  -0.2237   0.4344   1.0000  39.0498 160.0000
   7.000   1.7378   0.01615   0.00391  -0.2218   0.4205   1.0000  39.9298 160.0000
   7.500   1.7819   0.01669   0.00400  -0.2196   0.4049   1.0000  40.9158 160.0000
   8.000   1.8229   0.01730   0.00408  -0.2169   0.3856   1.0000  42.1530 160.0000
   8.500   1.8579   0.01802   0.00419  -0.2130   0.3606   1.0000  43.7776 160.0000
   9.000   1.8857   0.01910   0.00445  -0.2079   0.3276   1.0000  45.9677 160.0000
   9.500   1.9062   0.02081   0.00507  -0.2019   0.2857   1.0000  48.7694 160.0000
  10.000   1.9202   0.02315   0.00614  -0.1952   0.2454   1.0000  51.4696 160.0000
  10.500   1.9302   0.02592   0.00757  -0.1885   0.2121   1.0000  53.7133 160.0000
  11.000   1.9385   0.02901   0.00928  -0.1821   0.1860   1.0000  55.4951 160.0000
  11.500   1.9413   0.03275   0.01150  -0.1759   0.1655   1.0000  56.9230 160.0000
  12.000   1.9424   0.03702   0.01416  -0.1704   0.1498   1.0000  58.0400 160.0000
  12.500   1.9408   0.04201   0.01740  -0.1658   0.1365   1.0000  59.0036 160.0000
  13.000   1.9436   0.04706   0.02076  -0.1625   0.1260   1.0000  59.7834 160.0000
  13.500   1.9438   0.05289   0.02475  -0.1599   0.1173   1.0000  60.4349 160.0000
  14.000   1.9364   0.06014   0.02987  -0.1581   0.1089   1.0000  61.0797 160.0000
  14.500   1.9351   0.06707   0.03480  -0.1573   0.1001   1.0000  61.7709 160.0000
  15.000   1.9316   0.07463   0.04032  -0.1570   0.0924   1.0000  62.3885 160.0000
