  
       XFOIL         Version 6.99
  
 Calculated polar for: generation/a10                                  
  
 1 1 Reynolds number fixed          Mach number fixed         
  
 xtrf =   1.000 (top)        1.000 (bottom)  
 Mach =   0.000     Re =     0.350 e 6     Ncrit =   9.000  9.000
  
   alpha    CL        CD       CDp       CM     Top_Xtr  Bot_Xtr  Top_Itr  Bot_Itr
  ------ -------- --------- --------- -------- -------- -------- -------- --------
  -2.000   0.7097   0.00913   0.00156  -0.2207   0.8021   0.3302  16.1766 115.6598
  -1.500   0.7677   0.00929   0.00154  -0.2208   0.7652   0.3641  18.5187 117.7134
  -1.000   0.8234   0.00949   0.00155  -0.2205   0.7312   0.3966  20.6677 119.6907
  -0.500   0.8779   0.00971   0.00159  -0.2200   0.6996   0.4325  22.6599 121.8854
   0.000   0.9325   0.00993   0.00168  -0.2196   0.6718   0.4738  24.4102 124.4175
   0.500   0.9872   0.01020   0.00179  -0.2193   0.6471   0.5249  25.9632 127.5519
   1.000   1.0415   0.01043   0.00196  -0.2189   0.6246   0.5838  27.3779 131.1852
   1.500   1.0952   0.01071   0.00215  -0.2183   0.6044   0.6494  28.6447 135.2479
   2.000   1.1476   0.01100   0.00234  -0.2174   0.5858   0.7151  29.8097 139.3601
   2.500   1.1981   0.01129   0.00253  -0.2161   0.5680   0.7844  30.9238 143.7608
   3.000   1.2433   0.01150   0.00269  -0.2136   0.5520   0.8665  31.9326 149.1082
   3.500   1.2852   0.01163   0.00268  -0.2104   0.5371   1.0000  32.8680 160.0000
   4.000   1.3389   0.01208   0.00278  -0.2101   0.5210   1.0000  33.8793 160.0000
   4.500   1.3912   0.01254   0.00289  -0.2095   0.5050   1.0000  34.8888 160.0000
   5.000   1.4416   0.01303   0.00297  -0.2085   0.4875   1.0000  35.9898 160.0000
   5.500   1.4908   0.01348   0.00307  -0.2072   0.4700   1.0000  37.0953 160.0000
   6.000   1.5388   0.01396   0.00318  -0.2058   0.4521   1.0000  38.2333 160.0000
   6.500   1.5856   0.01449   0.00330  -0.2041   0.4337   1.0000  39.4076 160.0000
   7.000   1.6295   0.01509   0.00342  -0.2019   0.4122   1.0000  40.7804 160.0000
   7.500   1.6709   0.01576   0.00357  -0.1992   0.3876   1.0000  42.3651 160.0000
   8.000   1.7064   0.01657   0.00376  -0.1954   0.3574   1.0000  44.3342 160.0000
   8.500   1.7344   0.01776   0.00412  -0.1904   0.3174   1.0000  46.9838 160.0000
   9.000   1.7579   0.01940   0.00478  -0.1850   0.2731   1.0000  49.9301 160.0000
   9.500   1.7778   0.02140   0.00570  -0.1793   0.2314   1.0000  52.7257 160.0000
  10.000   1.7941   0.02372   0.00688  -0.1733   0.1959   1.0000  55.1439 160.0000
  10.500   1.8084   0.02630   0.00826  -0.1676   0.1661   1.0000  57.2163 160.0000
  11.000   1.8193   0.02926   0.00994  -0.1619   0.1423   1.0000  58.9140 160.0000
  11.500   1.8313   0.03234   0.01176  -0.1570   0.1245   1.0000  60.2253 160.0000
  12.000   1.8410   0.03586   0.01394  -0.1525   0.1114   1.0000  61.2113 160.0000
  12.500   1.8471   0.04000   0.01660  -0.1483   0.1003   1.0000  62.0769 160.0000
  13.000   1.8519   0.04463   0.01966  -0.1450   0.0896   1.0000  62.9346 160.0000
  13.500   1.8571   0.04962   0.02304  -0.1424   0.0791   1.0000  63.8096 160.0000
  14.000   1.8585   0.05546   0.02709  -0.1404   0.0683   1.0000  64.7635 160.0000
  14.500   1.8533   0.06261   0.03223  -0.1392   0.0561   1.0000  65.9393 160.0000
  15.000   1.8414   0.07121   0.03866  -0.1388   0.0414   1.0000  67.5845 160.0000
