  
       XFOIL         Version 6.99
  
 Calculated polar for: generation/a11                                  
  
 1 1 Reynolds number fixed          Mach number fixed         
  
 xtrf =   1.000 (top)        1.000 (bottom)  
 Mach =   0.000     Re =     0.350 e 6     Ncrit =   9.000  9.000
  
   alpha    CL        CD       CDp       CM     Top_Xtr  Bot_Xtr  Top_Itr  Bot_Itr
  ------ -------- --------- --------- -------- -------- -------- -------- --------
  -2.000   0.7637   0.00937   0.00168  -0.2336   0.8137   0.2921  15.5481 113.2766
  -1.500   0.8237   0.00953   0.00162  -0.2341   0.7838   0.3208  17.4551 115.0248
  -1.000   0.8803   0.00973   0.00164  -0.2340   0.7554   0.3510  19.2652 116.8736
  -0.500   0.9355   0.00992   0.00165  -0.2337   0.7276   0.3765  21.0217 118.4391
   0.000   0.9889   0.01011   0.00167  -0.2330   0.7002   0.4036  22.7538 120.1089
   0.500   1.0425   0.01032   0.00173  -0.2324   0.6747   0.4380  24.3594 122.2343
   1.000   1.0962   0.01056   0.00183  -0.2319   0.6505   0.4878  25.8835 125.3140
   1.500   1.1498   0.01078   0.00199  -0.2314   0.6279   0.5621  27.3105 129.9101
   2.000   1.2024   0.01099   0.00220  -0.2306   0.6065   0.6735  28.6575 136.8495
   2.500   1.2486   0.01116   0.00242  -0.2283   0.5858   0.8237  29.9636 146.3729
   3.000   1.2873   0.01128   0.00241  -0.2244   0.5667   1.0000  31.1671 160.0000
   3.500   1.3395   0.01174   0.00252  -0.2237   0.5492   1.0000  32.2677 160.0000
   4.000   1.3902   0.01221   0.00262  -0.2227   0.5312   1.0000  33.4057 160.0000
   4.500   1.4406   0.01270   0.00274  -0.2217   0.5149   1.0000  34.4363 160.0000
   5.000   1.4889   0.01320   0.00284  -0.2202   0.4968   1.0000  35.5780 160.0000
   5.500   1.5363   0.01372   0.00296  -0.2186   0.4795   1.0000  36.6754 160.0000
   6.000   1.5819   0.01429   0.00307  -0.2166   0.4615   1.0000  37.8132 160.0000
   6.500   1.6262   0.01489   0.00320  -0.2145   0.4439   1.0000  38.9303 160.0000
   7.000   1.6673   0.01550   0.00334  -0.2117   0.4249   1.0000  40.1422 160.0000
   7.500   1.7043   0.01617   0.00350  -0.2081   0.4019   1.0000  41.6104 160.0000
   8.000   1.7385   0.01700   0.00372  -0.2041   0.3763   1.0000  43.2621 160.0000
   8.500   1.7688   0.01805   0.00404  -0.1995   0.3419   1.0000  45.5129 160.0000
   9.000   1.7911   0.01966   0.00463  -0.1938   0.2983   1.0000  48.4085 160.0000
   9.500   1.8085   0.02177   0.00558  -0.1877   0.2566   1.0000  51.1943 160.0000
  10.000   1.8238   0.02417   0.00679  -0.1817   0.2199   1.0000  53.6550 160.0000
  10.500   1.8357   0.02695   0.00827  -0.1757   0.1879   1.0000  55.8367 160.0000
  11.000   1.8467   0.02998   0.00995  -0.1701   0.1607   1.0000  57.7434 160.0000
  11.500   1.8563   0.03332   0.01191  -0.1650   0.1404   1.0000  59.1912 160.0000
  12.000   1.8664   0.03689   0.01409  -0.1605   0.1259   1.0000  60.2562 160.0000
  12.500   1.8736   0.04098   0.01667  -0.1564   0.1141   1.0000  61.1507 160.0000
  13.000   1.8774   0.04578   0.01981  -0.1528   0.1029   1.0000  62.0108 160.0000
  13.500   1.8833   0.05071   0.02309  -0.1501   0.0920   1.0000  62.8822 160.0000
  14.000   1.8865   0.05632   0.02690  -0.1480   0.0806   1.0000  63.8320 160.0000
  14.500   1.8832   0.06314   0.03171  -0.1464   0.0669   1.0000  65.0419 160.0000
  15.000   1.8695   0.07190   0.03817  -0.1456   0.0452   1.0000  67.2810 160.0000
