  
       XFOIL         Version 6.99
  
 Calculated polar for: generation/a12                                  
  
 1 1 Reynolds number fixed          Mach number fixed         
  
 xtrf =   1.000 (top)        1.000 (bottom)  
 Mach =   0.000     Re =     0.350 e 6     Ncrit =   9.000  9.000
  
   alpha    CL        CD       CDp       CM     Top_Xtr  Bot_Xtr  Top_Itr  Bot_Itr
  ------ -------- --------- --------- -------- -------- -------- -------- --------
  -2.000   0.5980   0.01291   0.00278  -0.1744   0.5550   0.0413  30.3810  98.2546
  -1.500   0.6630   0.01201   0.00243  -0.1768   0.5483   0.1796  30.7873 108.2729
  -1.000   0.7255   0.01158   0.00264  -0.1789   0.5423   0.4287  31.1516 122.9547
  -0.500   0.7828   0.01141   0.00308  -0.1791   0.5359   0.6602  31.5451 136.5544
   0.000   0.8382   0.01172   0.00332  -0.1786   0.5305   0.7290  31.8733 140.7651
   0.500   0.8925   0.01199   0.00355  -0.1780   0.5250   0.7706  32.2091 143.3927
   1.000   0.9458   0.01217   0.00375  -0.1773   0.5195   0.8073  32.5496 145.7277
   1.500   1.0000   0.01240   0.00387  -0.1768   0.5143   0.8335  32.8679 147.4191
   2.000   1.0530   0.01266   0.00407  -0.1762   0.5093   0.8604  33.1739 149.1718
   2.500   1.1025   0.01275   0.00422  -0.1748   0.5038   0.8953  33.5146 151.4823
   3.000   1.1538   0.01284   0.00422  -0.1739   0.4988   1.0000  33.8210 160.0000
   3.500   1.2138   0.01333   0.00446  -0.1752   0.4936   1.0000  34.1431 160.0000
   4.000   1.2710   0.01368   0.00469  -0.1759   0.4878   1.0000  34.5023 160.0000
   4.500   1.3283   0.01407   0.00482  -0.1765   0.4825   1.0000  34.8317 160.0000
   5.000   1.3837   0.01457   0.00506  -0.1768   0.4770   1.0000  35.1756 160.0000
   5.500   1.4376   0.01492   0.00527  -0.1767   0.4708   1.0000  35.5688 160.0000
   6.000   1.4931   0.01535   0.00532  -0.1770   0.4650   1.0000  35.9304 160.0000
   6.500   1.5443   0.01574   0.00556  -0.1765   0.4581   1.0000  36.3690 160.0000
   7.000   1.5970   0.01604   0.00555  -0.1762   0.4510   1.0000  36.8242 160.0000
   7.500   1.6465   0.01642   0.00563  -0.1753   0.4427   1.0000  37.3554 160.0000
   8.000   1.6968   0.01666   0.00542  -0.1746   0.4337   1.0000  37.9423 160.0000
   8.500   1.7418   0.01690   0.00538  -0.1729   0.4227   1.0000  38.6618 160.0000
   9.000   1.7869   0.01724   0.00531  -0.1713   0.4119   1.0000  39.3744 160.0000
   9.500   1.8287   0.01756   0.00514  -0.1691   0.3984   1.0000  40.2656 160.0000
  10.000   1.8659   0.01797   0.00502  -0.1661   0.3809   1.0000  41.4473 160.0000
  10.500   1.8988   0.01861   0.00500  -0.1625   0.3617   1.0000  42.7512 160.0000
  11.000   1.9213   0.01954   0.00516  -0.1571   0.3403   1.0000  44.2234 160.0000
  11.500   1.9335   0.02104   0.00564  -0.1505   0.3138   1.0000  46.0449 160.0000
  12.000   1.9363   0.02334   0.00666  -0.1433   0.2826   1.0000  48.1952 160.0000
  12.500   1.9246   0.02699   0.00862  -0.1357   0.2478   1.0000  50.6050 160.0000
  13.000   1.8986   0.03265   0.01213  -0.1290   0.2145   1.0000  52.9488 160.0000
  13.500   1.8661   0.04044   0.01741  -0.1247   0.1848   1.0000  55.0758 160.0000
  14.000   1.8306   0.05005   0.02431  -0.1227   0.1593   1.0000  56.9408 160.0000
  14.500   1.7973   0.06041   0.03205  -0.1222   0.1369   1.0000  58.6195 160.0000
  15.000   1.7653   0.07135   0.04052  -0.1227   0.1179   1.0000  60.0961 160.0000
