  
       XFOIL         Version 6.99
  
 Calculated polar for: generation/a13                                  
  
 1 1 Reynolds number fixed          Mach number fixed         
  
 xtrf =   1.000 (top)        1.000 (bottom)  
 Mach =   0.000     Re =     0.350 e 6     Ncrit =   9.000  9.000
  
   alpha    CL        CD       CDp       CM     Top_Xtr  Bot_Xtr  Top_Itr  Bot_Itr
  ------ -------- --------- --------- -------- -------- -------- -------- --------
  -2.000   0.6290   0.00971   0.00151  -0.1957   0.7713   0.1668  17.7937 106.2587
  -1.500   0.6866   0.00932   0.00151  -0.1965   0.7505   0.3412  19.1294 116.8898
  -1.000   0.7419   0.00907   0.00160  -0.1966   0.7291   0.5107  20.5004 127.2453
  -0.500   0.7949   0.00903   0.00180  -0.1959   0.7090   0.6744  21.7845 137.2712
   0.500   0.8932   0.00927   0.00199  -0.1924   0.6712   0.8297  24.2051 147.1366
   1.500   0.9862   0.00941   0.00190  -0.1880   0.6366   1.0000  26.4183 160.0000
   2.000   1.0419   0.00975   0.00197  -0.1883   0.6207   1.0000  27.4337 160.0000
   2.500   1.0964   0.01010   0.00205  -0.1882   0.6055   1.0000  28.4054 160.0000
   3.000   1.1498   0.01047   0.00214  -0.1879   0.5905   1.0000  29.3659 160.0000
   3.500   1.2029   0.01087   0.00224  -0.1876   0.5766   1.0000  30.2568 160.0000
   4.000   1.2554   0.01128   0.00235  -0.1871   0.5630   1.0000  31.1287 160.0000
   4.500   1.3068   0.01169   0.00245  -0.1864   0.5487   1.0000  32.0437 160.0000
   5.000   1.3568   0.01211   0.00256  -0.1855   0.5343   1.0000  32.9685 160.0000
   5.500   1.4052   0.01254   0.00265  -0.1843   0.5189   1.0000  33.9529 160.0000
   6.000   1.4528   0.01298   0.00277  -0.1829   0.5042   1.0000  34.8961 160.0000
   6.500   1.4979   0.01347   0.00284  -0.1810   0.4871   1.0000  35.9964 160.0000
   7.000   1.5399   0.01392   0.00293  -0.1785   0.4685   1.0000  37.1964 160.0000
   7.500   1.5786   0.01443   0.00299  -0.1754   0.4472   1.0000  38.5812 160.0000
   8.000   1.6104   0.01505   0.00304  -0.1710   0.4230   1.0000  40.1568 160.0000
   8.500   1.6380   0.01584   0.00318  -0.1660   0.3936   1.0000  42.0917 160.0000
   9.000   1.6604   0.01694   0.00347  -0.1603   0.3542   1.0000  44.7114 160.0000
   9.500   1.6750   0.01862   0.00407  -0.1537   0.3072   1.0000  47.8635 160.0000
  10.000   1.6853   0.02080   0.00504  -0.1470   0.2584   1.0000  51.1618 160.0000
  10.500   1.6915   0.02349   0.00641  -0.1404   0.2105   1.0000  54.4589 160.0000
  11.000   1.6923   0.02685   0.00830  -0.1340   0.1654   1.0000  57.6581 160.0000
  11.500   1.6906   0.03080   0.01069  -0.1282   0.1260   1.0000  60.5623 160.0000
  12.000   1.6854   0.03552   0.01372  -0.1231   0.0933   1.0000  63.1371 160.0000
  12.500   1.6757   0.04122   0.01758  -0.1188   0.0624   1.0000  65.8481 160.0000
  13.000   1.6551   0.04880   0.02302  -0.1152   0.0341   1.0000  69.0458 160.0000
  13.500   1.6407   0.05649   0.02872  -0.1130   0.0240   1.0000  70.7271 160.0000
  14.000   1.6309   0.06426   0.03468  -0.1121   0.0206   1.0000  71.4130 160.0000
  14.500   1.6194   0.07278   0.04149  -0.1120   0.0186   1.0000  71.8560 160.0000
  15.000   1.6068   0.08195   0.04909  -0.1127   0.0174   1.0000  72.1552 160.0000
