  
       XFOIL         Version 6.99
  
 Calculated polar for: generation/a15                                  
  
 1 1 Reynolds number fixed          Mach number fixed         
  
 xtrf =   1.000 (top)        1.000 (bottom)  
 Mach =   0.000     Re =     0.350 e 6     Ncrit =   9.000  9.000
  
   alpha    CL        CD       CDp       CM     Top_Xtr  Bot_Xtr  Top_Itr  Bot_Itr
  ------ -------- --------- --------- -------- -------- -------- -------- --------
  -1.500   0.5784   0.00979   0.00278  -0.1888   0.8994   0.4441   9.8031 122.2059
  -1.000   0.6512   0.00930   0.00253  -0.1921   0.8891   0.5114  10.5122 126.4152
  -0.500   0.7291   0.00887   0.00229  -0.1965   0.8778   0.5780  11.2834 130.6061
   0.000   0.7983   0.00860   0.00212  -0.1990   0.8607   0.6371  12.4457 134.3409
   0.500   0.8654   0.00844   0.00199  -0.2009   0.8400   0.6942  13.8313 137.9751
   1.000   0.9233   0.00842   0.00193  -0.2009   0.8142   0.7469  15.5481 141.3553
   1.500   0.9773   0.00849   0.00190  -0.2000   0.7860   0.7995  17.4176 144.7554
   2.000   1.0247   0.00862   0.00188  -0.1977   0.7553   0.8533  19.4345 148.2943
   2.500   1.0610   0.00868   0.00179  -0.1928   0.7229   0.9246  21.5562 153.2279
   3.000   1.1098   0.00893   0.00164  -0.1912   0.6872   1.0000  23.8859 160.0000
   3.500   1.1604   0.00940   0.00167  -0.1901   0.6500   1.0000  26.3036 160.0000
   4.000   1.2081   0.00994   0.00172  -0.1885   0.6109   1.0000  28.8424 160.0000
   4.500   1.2532   0.01053   0.00181  -0.1863   0.5689   1.0000  31.5629 160.0000
   5.000   1.2965   0.01121   0.00194  -0.1838   0.5265   1.0000  34.3050 160.0000
   5.500   1.3376   0.01197   0.00212  -0.1809   0.4828   1.0000  37.1385 160.0000
   6.000   1.3755   0.01281   0.00233  -0.1774   0.4370   1.0000  40.1160 160.0000
   6.500   1.4099   0.01379   0.00261  -0.1734   0.3847   1.0000  43.5243 160.0000
   7.000   1.4407   0.01503   0.00301  -0.1689   0.3245   1.0000  47.4751 160.0000
   7.500   1.4712   0.01641   0.00352  -0.1645   0.2684   1.0000  51.2022 160.0000
   8.000   1.5010   0.01794   0.00414  -0.1603   0.2154   1.0000  54.7826 160.0000
   8.500   1.5275   0.01974   0.00493  -0.1557   0.1619   1.0000  58.4990 160.0000
   9.000   1.5531   0.02166   0.00583  -0.1511   0.1193   1.0000  61.5922 160.0000
   9.500   1.5762   0.02379   0.00687  -0.1464   0.0838   1.0000  64.3511 160.0000
  10.000   1.5881   0.02688   0.00848  -0.1404   0.0399   1.0000  68.4835 160.0000
  10.500   1.5946   0.03058   0.01057  -0.1341   0.0228   1.0000  70.9211 160.0000
  11.000   1.6089   0.03371   0.01246  -0.1293   0.0193   1.0000  71.6444 160.0000
  11.500   1.6114   0.03807   0.01534  -0.1239   0.0175   1.0000  72.0274 160.0000
  12.000   1.6182   0.04233   0.01825  -0.1197   0.0165   1.0000  72.2695 160.0000
  12.500   1.6204   0.04738   0.02186  -0.1161   0.0157   1.0000  72.4808 160.0000
  13.000   1.6197   0.05320   0.02616  -0.1132   0.0150   1.0000  72.6507 160.0000
  13.500   1.6162   0.05985   0.03121  -0.1111   0.0145   1.0000  72.7879 160.0000
  14.000   1.6099   0.06745   0.03704  -0.1098   0.0140   1.0000  72.9089 160.0000
  14.500   1.6058   0.07529   0.04305  -0.1089   0.0136   1.0000  73.0319 160.0000
  15.000   1.6061   0.08268   0.04925  -0.1092   0.0132   1.0000  73.1519 160.0000
