  
       XFOIL         Version 6.99
  
 Calculated polar for: generation/a2                                   
  
 1 1 Reynolds number fixed          Mach number fixed         
  
 xtrf =   1.000 (top)        1.000 (bottom)  
 Mach =   0.000     Re =     0.350 e 6     Ncrit =   9.000  9.000
  
   alpha    CL        CD       CDp       CM     Top_Xtr  Bot_Xtr  Top_Itr  Bot_Itr
  ------ -------- --------- --------- -------- -------- -------- -------- --------
  -2.000   0.7484   0.00937   0.00168  -0.2302   0.8254   0.2677  14.7353 111.8023
  -1.500   0.8099   0.00943   0.00166  -0.2312   0.8037   0.3143  16.1380 114.6469
  -1.000   0.8663   0.00952   0.00164  -0.2311   0.7806   0.3503  17.6235 116.8599
  -0.500   0.9238   0.00964   0.00166  -0.2313   0.7594   0.3919  18.9831 119.4244
   0.000   0.9774   0.00974   0.00168  -0.2307   0.7365   0.4346  20.4483 122.0716
   0.500   1.0321   0.00985   0.00173  -0.2304   0.7145   0.4939  21.8484 125.7540
   1.000   1.0856   0.00995   0.00186  -0.2299   0.6922   0.5917  23.2720 131.8306
   1.500   1.1361   0.01002   0.00204  -0.2286   0.6700   0.7343  24.6835 140.7599
   2.000   1.1705   0.00991   0.00203  -0.2234   0.6495   1.0000  25.9861 160.0000
   2.500   1.2212   0.01029   0.00207  -0.2223   0.6259   1.0000  27.4910 160.0000
   3.000   1.2716   0.01074   0.00211  -0.2212   0.6034   1.0000  28.9234 160.0000
   3.500   1.3213   0.01117   0.00220  -0.2200   0.5823   1.0000  30.2651 160.0000
   4.000   1.3699   0.01164   0.00228  -0.2186   0.5612   1.0000  31.6126 160.0000
   4.500   1.4178   0.01215   0.00238  -0.2171   0.5415   1.0000  32.8684 160.0000
   5.000   1.4651   0.01268   0.00250  -0.2154   0.5226   1.0000  34.0714 160.0000
   5.500   1.5097   0.01320   0.00261  -0.2133   0.5013   1.0000  35.4321 160.0000
   6.000   1.5532   0.01377   0.00274  -0.2109   0.4814   1.0000  36.7027 160.0000
   6.500   1.5935   0.01442   0.00287  -0.2080   0.4616   1.0000  37.9669 160.0000
   7.000   1.6321   0.01504   0.00303  -0.2047   0.4407   1.0000  39.3049 160.0000
   7.500   1.6677   0.01579   0.00323  -0.2010   0.4178   1.0000  40.7759 160.0000
   8.000   1.7016   0.01663   0.00348  -0.1970   0.3928   1.0000  42.3856 160.0000
   8.500   1.7311   0.01769   0.00382  -0.1924   0.3612   1.0000  44.4396 160.0000
   9.000   1.7533   0.01919   0.00436  -0.1868   0.3201   1.0000  47.1634 160.0000
   9.500   1.7677   0.02132   0.00529  -0.1803   0.2712   1.0000  50.4239 160.0000
  10.000   1.7787   0.02391   0.00658  -0.1738   0.2265   1.0000  53.4275 160.0000
  10.500   1.7891   0.02676   0.00810  -0.1678   0.1906   1.0000  55.8858 160.0000
  11.000   1.8007   0.02973   0.00977  -0.1625   0.1625   1.0000  57.8524 160.0000
  11.500   1.8120   0.03294   0.01164  -0.1577   0.1410   1.0000  59.4025 160.0000
  12.000   1.8213   0.03656   0.01384  -0.1532   0.1229   1.0000  60.7366 160.0000
  13.000   1.8336   0.04528   0.01940  -0.1458   0.0907   1.0000  63.2567 160.0000
  13.500   1.8320   0.05102   0.02324  -0.1428   0.0706   1.0000  64.9663 160.0000
  14.000   1.8132   0.05941   0.02924  -0.1401   0.0392   1.0000  68.2638 160.0000
  14.500   1.7896   0.06930   0.03678  -0.1385   0.0253   1.0000  70.3072 160.0000
  15.000   1.7710   0.07924   0.04470  -0.1383   0.0210   1.0000  71.1069 160.0000
