  
       XFOIL         Version 6.99
  
 Calculated polar for: generation/a2                                   
  
 1 1 Reynolds number fixed          Mach number fixed         
  
 xtrf =   1.000 (top)        1.000 (bottom)  
 Mach =   0.000     Re =     0.350 e 6     Ncrit =   9.000  9.000
  
   alpha    CL        CD       CDp       CM     Top_Xtr  Bot_Xtr  Top_Itr  Bot_Itr
  ------ -------- --------- --------- -------- -------- -------- -------- --------
  -2.000   0.7567   0.00948   0.00160  -0.2294   0.7838   0.2784  17.3312 112.6210
  -1.500   0.8137   0.00967   0.00160  -0.2294   0.7575   0.3194  19.0027 115.1086
  -1.000   0.8678   0.00982   0.00164  -0.2288   0.7312   0.3538  20.6673 117.2058
  -0.500   0.9225   0.01000   0.00168  -0.2284   0.7073   0.3904  22.1782 119.4508
   0.000   0.9763   0.01016   0.00172  -0.2279   0.6832   0.4281  23.6966 121.7730
   0.500   1.0308   0.01035   0.00179  -0.2275   0.6614   0.4796  25.0726 124.9441
   1.000   1.0847   0.01049   0.00194  -0.2271   0.6397   0.5580  26.4426 129.7810
   1.500   1.1377   0.01066   0.00215  -0.2265   0.6199   0.6717  27.6917 136.8236
   2.000   1.1861   0.01081   0.00236  -0.2247   0.6020   0.8048  28.8230 145.2392
   2.500   1.2245   0.01086   0.00235  -0.2206   0.5850   1.0000  29.8920 160.0000
   3.000   1.2776   0.01132   0.00243  -0.2201   0.5675   1.0000  31.0005 160.0000
   3.500   1.3295   0.01176   0.00253  -0.2194   0.5509   1.0000  32.0495 160.0000
   4.500   1.4314   0.01269   0.00276  -0.2176   0.5198   1.0000  34.0126 160.0000
   5.000   1.4809   0.01316   0.00288  -0.2164   0.5049   1.0000  34.9539 160.0000
   5.500   1.5280   0.01366   0.00298  -0.2148   0.4880   1.0000  36.0265 160.0000
   6.000   1.5742   0.01417   0.00309  -0.2130   0.4717   1.0000  37.0603 160.0000
   6.500   1.6184   0.01470   0.00321  -0.2108   0.4545   1.0000  38.1569 160.0000
   7.000   1.6612   0.01527   0.00334  -0.2084   0.4374   1.0000  39.2441 160.0000
   7.500   1.6988   0.01588   0.00347  -0.2050   0.4176   1.0000  40.5153 160.0000
   8.000   1.7332   0.01664   0.00364  -0.2011   0.3962   1.0000  41.8911 160.0000
   8.500   1.7658   0.01749   0.00389  -0.1969   0.3702   1.0000  43.5775 160.0000
   9.000   1.7916   0.01870   0.00427  -0.1917   0.3354   1.0000  45.8740 160.0000
   9.500   1.8108   0.02044   0.00496  -0.1858   0.2940   1.0000  48.6368 160.0000
  10.000   1.8237   0.02277   0.00606  -0.1793   0.2523   1.0000  51.4310 160.0000
  10.500   1.8317   0.02563   0.00755  -0.1726   0.2145   1.0000  53.9838 160.0000
  11.000   1.8400   0.02872   0.00927  -0.1667   0.1815   1.0000  56.2610 160.0000
  11.500   1.8454   0.03229   0.01137  -0.1611   0.1554   1.0000  58.1068 160.0000
  12.000   1.8532   0.03598   0.01363  -0.1565   0.1368   1.0000  59.4548 160.0000
  12.500   1.8589   0.04017   0.01629  -0.1524   0.1222   1.0000  60.5378 160.0000
  13.000   1.8630   0.04488   0.01938  -0.1490   0.1094   1.0000  61.5228 160.0000
  13.500   1.8654   0.05017   0.02294  -0.1462   0.0975   1.0000  62.4548 160.0000
  14.000   1.8658   0.05608   0.02703  -0.1441   0.0860   1.0000  63.3982 160.0000
  14.500   1.8630   0.06280   0.03178  -0.1426   0.0729   1.0000  64.5336 160.0000
  15.000   1.8514   0.07120   0.03797  -0.1419   0.0549   1.0000  66.2588 160.0000
