  
       XFOIL         Version 6.99
  
 Calculated polar for: generation/a3                                   
  
 1 1 Reynolds number fixed          Mach number fixed         
  
 xtrf =   1.000 (top)        1.000 (bottom)  
 Mach =   0.000     Re =     0.350 e 6     Ncrit =   9.000  9.000
  
   alpha    CL        CD       CDp       CM     Top_Xtr  Bot_Xtr  Top_Itr  Bot_Itr
  ------ -------- --------- --------- -------- -------- -------- -------- --------
  -2.000   0.7369   0.00974   0.00151  -0.2219   0.7401   0.2467  19.9919 110.8292
  -1.500   0.7911   0.00989   0.00160  -0.2214   0.7133   0.3101  21.6878 114.6736
  -1.000   0.8455   0.01008   0.00162  -0.2210   0.6888   0.3487  23.2305 117.0295
  -0.500   0.8999   0.01024   0.00170  -0.2206   0.6663   0.3950  24.6442 119.8671
   0.000   0.9548   0.01040   0.00178  -0.2204   0.6460   0.4481  25.9270 123.1367
   0.500   1.0101   0.01052   0.00191  -0.2204   0.6273   0.5270  27.1042 127.9878
   1.000   1.0645   0.01063   0.00214  -0.2200   0.6100   0.6572  28.1972 136.0000
   1.500   1.1151   0.01077   0.00236  -0.2187   0.5945   0.7815  29.1735 143.8308
   2.000   1.1530   0.01072   0.00237  -0.2145   0.5809   1.0000  30.0297 160.0000
   2.500   1.2080   0.01111   0.00248  -0.2144   0.5672   1.0000  30.8939 160.0000
   3.000   1.2618   0.01151   0.00260  -0.2141   0.5535   1.0000  31.7550 160.0000
   3.500   1.3150   0.01192   0.00272  -0.2137   0.5404   1.0000  32.5837 160.0000
   4.000   1.3674   0.01236   0.00285  -0.2131   0.5276   1.0000  33.3908 160.0000
   4.500   1.4197   0.01284   0.00297  -0.2125   0.5157   1.0000  34.1449 160.0000
   5.000   1.4703   0.01330   0.00306  -0.2116   0.5025   1.0000  34.9821 160.0000
   5.500   1.5191   0.01371   0.00320  -0.2104   0.4898   1.0000  35.7857 160.0000
   6.000   1.5660   0.01415   0.00328  -0.2087   0.4750   1.0000  36.7256 160.0000
   6.500   1.6121   0.01463   0.00338  -0.2070   0.4607   1.0000  37.6356 160.0000
   7.000   1.6562   0.01514   0.00346  -0.2049   0.4453   1.0000  38.6185 160.0000
   7.500   1.6983   0.01570   0.00357  -0.2024   0.4295   1.0000  39.6325 160.0000
   8.000   1.7351   0.01631   0.00366  -0.1989   0.4114   1.0000  40.8003 160.0000
   8.500   1.7685   0.01703   0.00382  -0.1948   0.3920   1.0000  42.0583 160.0000
   9.000   1.7989   0.01787   0.00404  -0.1903   0.3666   1.0000  43.7257 160.0000
   9.500   1.8218   0.01914   0.00443  -0.1847   0.3330   1.0000  45.9614 160.0000
  10.000   1.8355   0.02108   0.00522  -0.1781   0.2892   1.0000  48.8986 160.0000
  10.500   1.8421   0.02374   0.00652  -0.1710   0.2449   1.0000  51.8896 160.0000
  11.000   1.8464   0.02685   0.00821  -0.1643   0.2058   1.0000  54.5606 160.0000
  11.500   1.8487   0.03044   0.01029  -0.1582   0.1745   1.0000  56.7475 160.0000
  12.000   1.8522   0.03430   0.01265  -0.1531   0.1521   1.0000  58.3506 160.0000
  12.500   1.8536   0.03874   0.01549  -0.1486   0.1335   1.0000  59.7098 160.0000
  13.000   1.8522   0.04392   0.01893  -0.1449   0.1175   1.0000  60.9162 160.0000
  13.500   1.8495   0.04975   0.02293  -0.1421   0.1034   1.0000  62.0172 160.0000
  14.000   1.8466   0.05609   0.02739  -0.1401   0.0903   1.0000  63.0780 160.0000
  14.500   1.8415   0.06314   0.03246  -0.1389   0.0758   1.0000  64.3182 160.0000
  15.000   1.8258   0.07217   0.03927  -0.1385   0.0579   1.0000  65.9937 160.0000
