  
       XFOIL         Version 6.99
  
 Calculated polar for: generation/a3                                   
  
 1 1 Reynolds number fixed          Mach number fixed         
  
 xtrf =   1.000 (top)        1.000 (bottom)  
 Mach =   0.000     Re =     0.350 e 6     Ncrit =   9.000  9.000
  
   alpha    CL        CD       CDp       CM     Top_Xtr  Bot_Xtr  Top_Itr  Bot_Itr
  ------ -------- --------- --------- -------- -------- -------- -------- --------
   0.000   0.3983   0.00748   0.00127  -0.0807   0.6693   1.0000  24.5352 160.0000
   0.250   0.4256   0.00758   0.00127  -0.0806   0.6637   1.0000  24.9244 160.0000
   0.500   0.4530   0.00767   0.00130  -0.0805   0.6574   1.0000  25.3526 160.0000
   0.750   0.4805   0.00776   0.00133  -0.0803   0.6515   1.0000  25.7586 160.0000
   1.000   0.5079   0.00788   0.00135  -0.0802   0.6460   1.0000  26.1347 160.0000
   1.250   0.5354   0.00796   0.00140  -0.0802   0.6398   1.0000  26.5652 160.0000
   1.500   0.5629   0.00809   0.00143  -0.0801   0.6345   1.0000  26.9283 160.0000
   1.750   0.5904   0.00818   0.00149  -0.0800   0.6284   1.0000  27.3491 160.0000
   2.000   0.6179   0.00829   0.00153  -0.0799   0.6225   1.0000  27.7545 160.0000
   2.250   0.6454   0.00842   0.00157  -0.0798   0.6168   1.0000  28.1435 160.0000
   2.500   0.6728   0.00850   0.00162  -0.0798   0.6100   1.0000  28.6187 160.0000
   2.750   0.7002   0.00864   0.00163  -0.0796   0.6040   1.0000  29.0324 160.0000
   3.000   0.7274   0.00871   0.00169  -0.0795   0.5963   1.0000  29.5636 160.0000
   3.250   0.7546   0.00883   0.00168  -0.0794   0.5895   1.0000  30.0302 160.0000
   3.500   0.7817   0.00890   0.00172  -0.0792   0.5812   1.0000  30.6100 160.0000
   3.750   0.8088   0.00902   0.00172  -0.0790   0.5739   1.0000  31.1097 160.0000
   4.000   0.8358   0.00909   0.00175  -0.0789   0.5653   1.0000  31.7106 160.0000
   4.250   0.8627   0.00920   0.00176  -0.0787   0.5569   1.0000  32.2950 160.0000
   4.500   0.8895   0.00930   0.00175  -0.0785   0.5479   1.0000  32.9237 160.0000
   4.750   0.9162   0.00938   0.00177  -0.0782   0.5376   1.0000  33.6399 160.0000
   5.000   0.9426   0.00948   0.00175  -0.0780   0.5260   1.0000  34.4509 160.0000
   5.250   0.9685   0.00956   0.00169  -0.0775   0.5096   1.0000  35.5988 160.0000
   5.500   0.9935   0.00967   0.00159  -0.0770   0.4865   1.0000  37.2232 160.0000
   5.750   1.0186   0.00985   0.00155  -0.0765   0.4629   1.0000  38.8795 160.0000
   6.000   1.0435   0.01008   0.00156  -0.0760   0.4372   1.0000  40.6961 160.0000
   6.250   1.0663   0.01048   0.00158  -0.0753   0.3944   1.0000  43.7215 160.0000
   6.500   1.0863   0.01118   0.00173  -0.0742   0.3308   1.0000  48.2454 160.0000
   6.750   1.1017   0.01239   0.00217  -0.0727   0.2432   1.0000  54.5106 160.0000
   7.000   1.1165   0.01369   0.00273  -0.0711   0.1669   1.0000  60.0348 160.0000
   7.250   1.1309   0.01501   0.00330  -0.0695   0.1008   1.0000  65.0218 160.0000
   7.500   1.1405   0.01672   0.00408  -0.0672   0.0341   1.0000  70.8899 160.0000
   7.750   1.1570   0.01773   0.00452  -0.0656   0.0232   1.0000  72.2793 160.0000
   8.000   1.1749   0.01855   0.00491  -0.0642   0.0205   1.0000  72.6983 160.0000
   8.250   1.1889   0.01964   0.00545  -0.0623   0.0188   1.0000  72.9624 160.0000
   8.500   1.2036   0.02058   0.00596  -0.0605   0.0180   1.0000  73.1222 160.0000
   8.750   1.2175   0.02149   0.00647  -0.0586   0.0171   1.0000  73.3042 160.0000
   9.000   1.2280   0.02249   0.00704  -0.0562   0.0164   1.0000  73.4383 160.0000
   9.250   1.2344   0.02359   0.00766  -0.0533   0.0160   1.0000  73.5214 160.0000
   9.500   1.2398   0.02482   0.00838  -0.0505   0.0156   1.0000  73.5932 160.0000
   9.750   1.2448   0.02619   0.00922  -0.0480   0.0153   1.0000  73.6571 160.0000
  10.000   1.2498   0.02771   0.01016  -0.0457   0.0151   1.0000  73.7142 160.0000
   0.000   0.3983   0.00748   0.00127  -0.0807   0.6693   1.0000  24.5352 160.0000
   0.250   0.4256   0.00758   0.00127  -0.0806   0.6637   1.0000  24.9244 160.0000
   0.500   0.4530   0.00767   0.00130  -0.0805   0.6574   1.0000  25.3526 160.0000
   0.750   0.4805   0.00776   0.00133  -0.0803   0.6515   1.0000  25.7586 160.0000
   1.000   0.5079   0.00788   0.00135  -0.0802   0.6460   1.0000  26.1347 160.0000
   1.250   0.5354   0.00796   0.00140  -0.0802   0.6398   1.0000  26.5652 160.0000
   1.500   0.5629   0.00809   0.00143  -0.0801   0.6345   1.0000  26.9283 160.0000
   1.750   0.5904   0.00818   0.00149  -0.0800   0.6284   1.0000  27.3491 160.0000
   2.000   0.6179   0.00829   0.00153  -0.0799   0.6225   1.0000  27.7545 160.0000
   2.250   0.6454   0.00842   0.00157  -0.0798   0.6168   1.0000  28.1435 160.0000
   2.500   0.6728   0.00850   0.00162  -0.0798   0.6100   1.0000  28.6187 160.0000
   2.750   0.7002   0.00864   0.00163  -0.0796   0.6040   1.0000  29.0324 160.0000
   3.000   0.7274   0.00871   0.00169  -0.0795   0.5963   1.0000  29.5636 160.0000
   3.250   0.7546   0.00883   0.00168  -0.0794   0.5895   1.0000  30.0302 160.0000
   3.500   0.7817   0.00890   0.00172  -0.0792   0.5812   1.0000  30.6100 160.0000
   3.750   0.8088   0.00902   0.00172  -0.0790   0.5739   1.0000  31.1097 160.0000
   4.000   0.8358   0.00909   0.00175  -0.0789   0.5653   1.0000  31.7106 160.0000
   4.250   0.8627   0.00920   0.00176  -0.0787   0.5569   1.0000  32.2950 160.0000
   4.500   0.8895   0.00930   0.00175  -0.0785   0.5479   1.0000  32.9237 160.0000
   4.750   0.9162   0.00938   0.00177  -0.0782   0.5376   1.0000  33.6399 160.0000
   5.000   0.9426   0.00948   0.00175  -0.0780   0.5260   1.0000  34.4509 160.0000
   5.250   0.9685   0.00956   0.00169  -0.0775   0.5096   1.0000  35.5988 160.0000
   5.500   0.9935   0.00967   0.00159  -0.0770   0.4865   1.0000  37.2232 160.0000
   5.750   1.0186   0.00985   0.00155  -0.0765   0.4629   1.0000  38.8795 160.0000
   6.000   1.0435   0.01008   0.00156  -0.0760   0.4372   1.0000  40.6961 160.0000
   6.250   1.0663   0.01048   0.00158  -0.0753   0.3944   1.0000  43.7215 160.0000
   6.500   1.0863   0.01118   0.00173  -0.0742   0.3308   1.0000  48.2454 160.0000
   6.750   1.1017   0.01239   0.00217  -0.0727   0.2432   1.0000  54.5106 160.0000
   7.000   1.1165   0.01369   0.00273  -0.0711   0.1669   1.0000  60.0348 160.0000
   7.250   1.1309   0.01501   0.00330  -0.0695   0.1008   1.0000  65.0218 160.0000
   7.500   1.1405   0.01672   0.00408  -0.0672   0.0341   1.0000  70.8899 160.0000
   7.750   1.1570   0.01773   0.00452  -0.0656   0.0232   1.0000  72.2793 160.0000
   8.000   1.1749   0.01855   0.00491  -0.0642   0.0205   1.0000  72.6983 160.0000
   8.250   1.1889   0.01964   0.00545  -0.0623   0.0188   1.0000  72.9624 160.0000
   8.500   1.2036   0.02058   0.00596  -0.0605   0.0180   1.0000  73.1222 160.0000
   8.750   1.2175   0.02149   0.00647  -0.0586   0.0171   1.0000  73.3042 160.0000
   9.000   1.2280   0.02249   0.00704  -0.0562   0.0164   1.0000  73.4383 160.0000
   9.250   1.2344   0.02359   0.00766  -0.0533   0.0160   1.0000  73.5214 160.0000
   9.500   1.2398   0.02482   0.00838  -0.0505   0.0156   1.0000  73.5932 160.0000
   9.750   1.2448   0.02619   0.00922  -0.0480   0.0153   1.0000  73.6571 160.0000
  10.000   1.2498   0.02771   0.01016  -0.0457   0.0151   1.0000  73.7142 160.0000
