  
       XFOIL         Version 6.99
  
 Calculated polar for: generation/a3                                   
  
 1 1 Reynolds number fixed          Mach number fixed         
  
 xtrf =   1.000 (top)        1.000 (bottom)  
 Mach =   0.000     Re =     0.350 e 6     Ncrit =   9.000  9.000
  
   alpha    CL        CD       CDp       CM     Top_Xtr  Bot_Xtr  Top_Itr  Bot_Itr
  ------ -------- --------- --------- -------- -------- -------- -------- --------
  -2.000   0.7326   0.00948   0.00156  -0.2231   0.7887   0.2507  16.9355 111.0300
  -1.500   0.7884   0.00954   0.00161  -0.2230   0.7658   0.3174  18.3976 115.0752
  -1.000   0.8442   0.00963   0.00161  -0.2228   0.7433   0.3631  19.8324 117.8715
  -0.500   0.8991   0.00973   0.00166  -0.2226   0.7217   0.4196  21.2019 121.3478
   0.000   0.9535   0.00980   0.00173  -0.2222   0.7000   0.4898  22.5837 125.6773
   0.500   1.0079   0.00989   0.00185  -0.2219   0.6793   0.5918  23.8939 131.9594
   1.000   1.0593   0.00998   0.00204  -0.2208   0.6590   0.7205  25.1821 139.9698
   1.500   1.1028   0.01001   0.00218  -0.2178   0.6396   0.8498  26.4162 148.2428
   2.000   1.1458   0.01010   0.00211  -0.2148   0.6213   1.0000  27.5772 160.0000
   2.500   1.1990   0.01051   0.00218  -0.2144   0.6033   1.0000  28.7236 160.0000
   3.000   1.2511   0.01093   0.00225  -0.2137   0.5853   1.0000  29.8631 160.0000
   3.500   1.3027   0.01137   0.00234  -0.2129   0.5683   1.0000  30.9454 160.0000
   4.000   1.3535   0.01183   0.00245  -0.2120   0.5520   1.0000  31.9808 160.0000
   4.500   1.4031   0.01228   0.00256  -0.2109   0.5355   1.0000  33.0316 160.0000
   5.000   1.4519   0.01276   0.00267  -0.2096   0.5196   1.0000  34.0440 160.0000
   5.500   1.4991   0.01324   0.00279  -0.2081   0.5033   1.0000  35.0826 160.0000
   6.000   1.5440   0.01373   0.00290  -0.2060   0.4854   1.0000  36.2255 160.0000
   6.500   1.5875   0.01426   0.00301  -0.2038   0.4675   1.0000  37.3669 160.0000
   7.000   1.6286   0.01483   0.00313  -0.2010   0.4495   1.0000  38.5244 160.0000
   7.500   1.6652   0.01546   0.00326  -0.1975   0.4299   1.0000  39.7839 160.0000
   8.000   1.6997   0.01620   0.00344  -0.1936   0.4094   1.0000  41.1027 160.0000
   8.500   1.7316   0.01703   0.00367  -0.1894   0.3846   1.0000  42.7166 160.0000
   9.000   1.7578   0.01816   0.00402  -0.1843   0.3524   1.0000  44.8273 160.0000
   9.500   1.7751   0.01985   0.00466  -0.1780   0.3087   1.0000  47.7439 160.0000
  10.000   1.7848   0.02223   0.00575  -0.1711   0.2613   1.0000  50.9175 160.0000
  10.500   1.7924   0.02503   0.00720  -0.1646   0.2188   1.0000  53.7982 160.0000
  11.000   1.7992   0.02816   0.00894  -0.1586   0.1846   1.0000  56.1591 160.0000
  11.500   1.8055   0.03162   0.01098  -0.1532   0.1576   1.0000  58.0771 160.0000
  12.000   1.8123   0.03534   0.01326  -0.1486   0.1358   1.0000  59.6624 160.0000
  12.500   1.8151   0.03977   0.01609  -0.1444   0.1172   1.0000  61.0590 160.0000
  13.000   1.8186   0.04452   0.01921  -0.1411   0.1005   1.0000  62.3635 160.0000
  13.500   1.8184   0.05005   0.02296  -0.1383   0.0842   1.0000  63.6996 160.0000
  14.000   1.8121   0.05677   0.02768  -0.1360   0.0641   1.0000  65.4891 160.0000
  14.500   1.7885   0.06634   0.03484  -0.1345   0.0379   1.0000  68.3741 160.0000
  15.000   1.7635   0.07701   0.04327  -0.1343   0.0257   1.0000  70.2039 160.0000
