  
       XFOIL         Version 6.99
  
 Calculated polar for: generation/a4                                   
  
 1 1 Reynolds number fixed          Mach number fixed         
  
 xtrf =   1.000 (top)        1.000 (bottom)  
 Mach =   0.000     Re =     0.350 e 6     Ncrit =   9.000  9.000
  
   alpha    CL        CD       CDp       CM     Top_Xtr  Bot_Xtr  Top_Itr  Bot_Itr
  ------ -------- --------- --------- -------- -------- -------- -------- --------
  -2.000   0.7325   0.00941   0.00171  -0.2269   0.8337   0.2441  14.1504 110.3414
  -1.500   0.7919   0.00940   0.00171  -0.2276   0.8145   0.3087  15.4089 114.3019
  -1.000   0.8505   0.00944   0.00167  -0.2280   0.7949   0.3526  16.6767 117.0044
  -0.500   0.9085   0.00948   0.00169  -0.2284   0.7762   0.4073  17.8902 120.4022
   0.000   0.9643   0.00952   0.00172  -0.2283   0.7567   0.4718  19.1419 124.4122
   0.500   1.0183   0.00953   0.00181  -0.2279   0.7365   0.5682  20.4446 130.4021
   1.000   1.0702   0.00952   0.00197  -0.2269   0.7161   0.7207  21.7505 139.9531
   1.500   1.1052   0.00931   0.00193  -0.2218   0.6967   1.0000  22.9936 160.0000
   2.000   1.1570   0.00963   0.00195  -0.2209   0.6755   1.0000  24.3515 160.0000
   2.500   1.2077   0.00999   0.00195  -0.2198   0.6527   1.0000  25.8088 160.0000
   3.000   1.2571   0.01038   0.00198  -0.2185   0.6299   1.0000  27.2715 160.0000
   3.500   1.3056   0.01079   0.00202  -0.2170   0.6072   1.0000  28.7314 160.0000
   4.000   1.3532   0.01126   0.00208  -0.2154   0.5849   1.0000  30.1614 160.0000
   4.500   1.3994   0.01172   0.00217  -0.2135   0.5620   1.0000  31.6258 160.0000
   5.000   1.4455   0.01226   0.00226  -0.2116   0.5416   1.0000  32.9394 160.0000
   5.500   1.4883   0.01279   0.00237  -0.2091   0.5178   1.0000  34.4678 160.0000
   6.000   1.5295   0.01339   0.00248  -0.2063   0.4961   1.0000  35.8612 160.0000
   6.500   1.5681   0.01401   0.00263  -0.2030   0.4736   1.0000  37.3058 160.0000
   7.000   1.6044   0.01471   0.00280  -0.1993   0.4503   1.0000  38.8010 160.0000
   7.500   1.6398   0.01548   0.00301  -0.1956   0.4265   1.0000  40.3355 160.0000
   8.000   1.6715   0.01642   0.00329  -0.1913   0.4005   1.0000  42.0152 160.0000
   8.500   1.6993   0.01753   0.00366  -0.1864   0.3655   1.0000  44.2888 160.0000
   9.000   1.7173   0.01920   0.00428  -0.1802   0.3160   1.0000  47.5674 160.0000
   9.500   1.7285   0.02152   0.00532  -0.1733   0.2641   1.0000  51.0350 160.0000
  10.000   1.7401   0.02409   0.00662  -0.1671   0.2205   1.0000  53.9733 160.0000
  10.500   1.7540   0.02672   0.00802  -0.1617   0.1865   1.0000  56.3149 160.0000
  11.000   1.7654   0.02971   0.00970  -0.1565   0.1571   1.0000  58.3884 160.0000
  11.500   1.7752   0.03305   0.01166  -0.1516   0.1334   1.0000  60.1063 160.0000
  12.000   1.7833   0.03680   0.01392  -0.1472   0.1106   1.0000  61.8373 160.0000
  12.500   1.7877   0.04120   0.01669  -0.1432   0.0873   1.0000  63.6972 160.0000
  13.000   1.7770   0.04761   0.02097  -0.1390   0.0515   1.0000  66.9786 160.0000
  13.500   1.7538   0.05622   0.02721  -0.1354   0.0264   1.0000  70.2245 160.0000
  14.000   1.7416   0.06423   0.03320  -0.1334   0.0213   1.0000  71.1629 160.0000
  14.500   1.7326   0.07237   0.03952  -0.1325   0.0191   1.0000  71.6426 160.0000
  15.000   1.7123   0.08276   0.04811  -0.1327   0.0176   1.0000  71.9784 160.0000
