  
       XFOIL         Version 6.99
  
 Calculated polar for: generation/a4                                   
  
 1 1 Reynolds number fixed          Mach number fixed         
  
 xtrf =   1.000 (top)        1.000 (bottom)  
 Mach =   0.000     Re =     0.350 e 6     Ncrit =   9.000  9.000
  
   alpha    CL        CD       CDp       CM     Top_Xtr  Bot_Xtr  Top_Itr  Bot_Itr
  ------ -------- --------- --------- -------- -------- -------- -------- --------
  -2.000   0.7465   0.00958   0.00160  -0.2255   0.7644   0.2818  18.4370 113.0470
  -1.500   0.8029   0.00974   0.00163  -0.2255   0.7398   0.3287  19.9865 115.8757
  -1.000   0.8570   0.00988   0.00167  -0.2249   0.7147   0.3676  21.5657 118.2338
  -0.500   0.9121   0.01006   0.00171  -0.2247   0.6923   0.4110  22.9726 120.8763
   0.000   0.9663   0.01019   0.00179  -0.2243   0.6699   0.4580  24.3802 123.7531
   0.500   1.0209   0.01034   0.00189  -0.2240   0.6491   0.5219  25.6916 127.6608
   1.000   1.0753   0.01053   0.00205  -0.2236   0.6298   0.6100  26.9037 133.0674
   1.500   1.1278   0.01073   0.00225  -0.2228   0.6120   0.7123  28.0238 139.4089
   2.000   1.1761   0.01089   0.00244  -0.2210   0.5954   0.8170  29.0669 146.0475
   2.500   1.2151   0.01093   0.00243  -0.2170   0.5798   1.0000  30.0464 160.0000
   3.000   1.2688   0.01135   0.00252  -0.2167   0.5636   1.0000  31.0675 160.0000
   3.500   1.3216   0.01179   0.00262  -0.2162   0.5481   1.0000  32.0394 160.0000
   4.000   1.3737   0.01223   0.00274  -0.2155   0.5338   1.0000  32.9418 160.0000
   4.500   1.4244   0.01267   0.00285  -0.2146   0.5189   1.0000  33.8808 160.0000
   5.000   1.4743   0.01312   0.00298  -0.2136   0.5046   1.0000  34.7858 160.0000
   5.500   1.5222   0.01360   0.00307  -0.2121   0.4885   1.0000  35.7984 160.0000
   6.000   1.5687   0.01410   0.00317  -0.2104   0.4723   1.0000  36.8251 160.0000
   6.500   1.6135   0.01463   0.00327  -0.2084   0.4557   1.0000  37.8809 160.0000
   7.000   1.6569   0.01521   0.00340  -0.2061   0.4393   1.0000  38.9263 160.0000
   7.500   1.6965   0.01581   0.00352  -0.2031   0.4210   1.0000  40.0981 160.0000
   8.000   1.7319   0.01647   0.00368  -0.1993   0.3997   1.0000  41.4614 160.0000
   8.500   1.7632   0.01734   0.00390  -0.1949   0.3762   1.0000  42.9876 160.0000
   9.000   1.7908   0.01843   0.00424  -0.1901   0.3447   1.0000  45.0549 160.0000
   9.500   1.8113   0.02001   0.00484  -0.1843   0.3049   1.0000  47.7025 160.0000
  10.000   1.8255   0.02217   0.00583  -0.1779   0.2645   1.0000  50.4044 160.0000
  10.500   1.8341   0.02489   0.00723  -0.1713   0.2271   1.0000  52.9220 160.0000
  11.000   1.8407   0.02801   0.00896  -0.1651   0.1927   1.0000  55.2700 160.0000
  11.500   1.8448   0.03162   0.01107  -0.1594   0.1634   1.0000  57.3290 160.0000
  12.000   1.8468   0.03575   0.01363  -0.1543   0.1416   1.0000  58.8953 160.0000
  12.500   1.8500   0.04018   0.01648  -0.1502   0.1264   1.0000  60.0223 160.0000
  13.000   1.8523   0.04512   0.01976  -0.1468   0.1134   1.0000  61.0102 160.0000
  13.500   1.8542   0.05051   0.02342  -0.1441   0.1019   1.0000  61.9087 160.0000
  14.000   1.8559   0.05630   0.02744  -0.1422   0.0912   1.0000  62.7663 160.0000
  14.500   1.8553   0.06274   0.03202  -0.1409   0.0808   1.0000  63.6444 160.0000
  15.000   1.8503   0.07018   0.03745  -0.1402   0.0690   1.0000  64.6958 160.0000
