  
       XFOIL         Version 6.99
  
 Calculated polar for: generation/a5                                   
  
 1 1 Reynolds number fixed          Mach number fixed         
  
 xtrf =   1.000 (top)        1.000 (bottom)  
 Mach =   0.000     Re =     0.350 e 6     Ncrit =   9.000  9.000
  
   alpha    CL        CD       CDp       CM     Top_Xtr  Bot_Xtr  Top_Itr  Bot_Itr
  ------ -------- --------- --------- -------- -------- -------- -------- --------
  -2.000   0.7632   0.00944   0.00168  -0.2320   0.7986   0.2934  16.3834 113.5877
  -1.500   0.8217   0.00959   0.00166  -0.2323   0.7738   0.3277  17.9608 115.6620
  -1.000   0.8763   0.00975   0.00169  -0.2318   0.7483   0.3626  19.5723 117.7848
  -0.500   0.9319   0.00992   0.00171  -0.2316   0.7251   0.3962  21.0369 119.8347
   0.000   0.9856   0.01007   0.00174  -0.2310   0.7008   0.4308  22.5680 121.9553
   0.500   1.0402   0.01026   0.00180  -0.2306   0.6783   0.4765  23.9790 124.7647
   1.000   1.0936   0.01042   0.00192  -0.2300   0.6556   0.5388  25.4128 128.5961
   1.500   1.1467   0.01062   0.00208  -0.2294   0.6342   0.6274  26.7559 134.0615
   2.000   1.1981   0.01085   0.00227  -0.2283   0.6145   0.7357  28.0013 140.8225
   2.500   1.2353   0.01084   0.00241  -0.2239   0.5944   0.8992  29.2647 151.4147
   3.000   1.2831   0.01114   0.00240  -0.2222   0.5745   1.0000  30.5190 160.0000
   3.500   1.3350   0.01160   0.00250  -0.2214   0.5566   1.0000  31.6460 160.0000
   4.000   1.3859   0.01208   0.00260  -0.2205   0.5392   1.0000  32.7428 160.0000
   4.500   1.4358   0.01257   0.00271  -0.2194   0.5221   1.0000  33.8219 160.0000
   5.000   1.4843   0.01309   0.00282  -0.2180   0.5047   1.0000  34.9191 160.0000
   5.500   1.5310   0.01362   0.00293  -0.2163   0.4863   1.0000  36.0849 160.0000
   6.000   1.5764   0.01414   0.00305  -0.2143   0.4681   1.0000  37.2389 160.0000
   6.500   1.6203   0.01471   0.00318  -0.2121   0.4497   1.0000  38.4031 160.0000
   7.000   1.6611   0.01533   0.00333  -0.2093   0.4311   1.0000  39.5892 160.0000
   7.500   1.6971   0.01607   0.00349  -0.2055   0.4095   1.0000  40.9635 160.0000
   8.000   1.7318   0.01684   0.00371  -0.2017   0.3848   1.0000  42.5502 160.0000
   8.500   1.7624   0.01785   0.00402  -0.1972   0.3545   1.0000  44.5156 160.0000
   9.000   1.7855   0.01932   0.00454  -0.1917   0.3153   1.0000  47.1081 160.0000
   9.500   1.8026   0.02132   0.00541  -0.1855   0.2728   1.0000  49.9329 160.0000
  10.000   1.8176   0.02367   0.00657  -0.1795   0.2349   1.0000  52.4699 160.0000
  10.500   1.8286   0.02645   0.00805  -0.1734   0.2015   1.0000  54.7300 160.0000
  11.000   1.8372   0.02961   0.00983  -0.1676   0.1720   1.0000  56.7722 160.0000
  11.500   1.8453   0.03306   0.01186  -0.1624   0.1484   1.0000  58.4496 160.0000
  12.000   1.8521   0.03692   0.01423  -0.1578   0.1308   1.0000  59.7284 160.0000
  12.500   1.8594   0.04104   0.01685  -0.1539   0.1181   1.0000  60.6760 160.0000
  13.000   1.8657   0.04559   0.01983  -0.1506   0.1072   1.0000  61.5173 160.0000
  13.500   1.8696   0.05075   0.02329  -0.1478   0.0971   1.0000  62.3131 160.0000
  14.000   1.8703   0.05666   0.02737  -0.1457   0.0872   1.0000  63.1135 160.0000
  14.500   1.8691   0.06319   0.03198  -0.1442   0.0768   1.0000  64.0016 160.0000
  15.000   1.8685   0.07000   0.03686  -0.1434   0.0636   1.0000  65.2016 160.0000
