  
       XFOIL         Version 6.99
  
 Calculated polar for: generation/a5                                   
  
 1 1 Reynolds number fixed          Mach number fixed         
  
 xtrf =   1.000 (top)        1.000 (bottom)  
 Mach =   0.000     Re =     0.350 e 6     Ncrit =   9.000  9.000
  
   alpha    CL        CD       CDp       CM     Top_Xtr  Bot_Xtr  Top_Itr  Bot_Itr
  ------ -------- --------- --------- -------- -------- -------- -------- --------
  -2.000   0.7753   0.01035   0.00171  -0.2308   0.6780   0.2782  23.9001 112.6456
  -1.500   0.8294   0.01071   0.00186  -0.2302   0.6513   0.3161  25.5584 114.9302
  -1.000   0.8847   0.01099   0.00198  -0.2299   0.6295   0.3431  26.9061 116.5609
  -0.500   0.9404   0.01124   0.00203  -0.2297   0.6107   0.3647  28.0740 117.8693
   0.000   0.9966   0.01145   0.00210  -0.2297   0.5939   0.3855  29.1150 119.1379
   0.500   1.0533   0.01169   0.00220  -0.2298   0.5793   0.4121  30.0155 120.7609
   1.000   1.1099   0.01189   0.00233  -0.2299   0.5658   0.4484  30.8509 122.9837
   1.500   1.1669   0.01208   0.00253  -0.2302   0.5537   0.5037  31.6057 126.3695
   2.000   1.2241   0.01233   0.00277  -0.2305   0.5429   0.5902  32.2761 131.6741
   2.500   1.2797   0.01258   0.00303  -0.2303   0.5324   0.6999  32.9274 138.4608
   3.000   1.3288   0.01269   0.00328  -0.2287   0.5211   0.8244  33.6283 146.3620
   3.500   1.3703   0.01281   0.00330  -0.2254   0.5106   1.0000  34.2793 160.0000
   4.000   1.4252   0.01326   0.00341  -0.2253   0.5006   1.0000  34.9034 160.0000
   4.500   1.4776   0.01365   0.00353  -0.2247   0.4894   1.0000  35.6071 160.0000
   5.000   1.5297   0.01411   0.00363  -0.2240   0.4782   1.0000  36.3029 160.0000
   5.500   1.5798   0.01456   0.00367  -0.2229   0.4654   1.0000  37.1079 160.0000
   6.000   1.6285   0.01499   0.00373  -0.2216   0.4527   1.0000  37.9109 160.0000
   6.500   1.6758   0.01542   0.00381  -0.2199   0.4393   1.0000  38.7574 160.0000
   7.000   1.7222   0.01592   0.00389  -0.2182   0.4256   1.0000  39.6291 160.0000
   7.500   1.7666   0.01646   0.00398  -0.2161   0.4107   1.0000  40.5783 160.0000
   8.000   1.8073   0.01707   0.00405  -0.2133   0.3922   1.0000  41.7630 160.0000
   8.500   1.8426   0.01777   0.00415  -0.2095   0.3702   1.0000  43.1872 160.0000
   9.000   1.8721   0.01871   0.00437  -0.2047   0.3411   1.0000  45.1060 160.0000
   9.500   1.8945   0.02019   0.00486  -0.1990   0.3021   1.0000  47.7202 160.0000
  10.000   1.9087   0.02239   0.00582  -0.1923   0.2603   1.0000  50.5182 160.0000
  10.500   1.9181   0.02509   0.00719  -0.1855   0.2253   1.0000  52.8755 160.0000
  11.000   1.9250   0.02819   0.00890  -0.1789   0.1962   1.0000  54.8565 160.0000
  11.500   1.9301   0.03167   0.01094  -0.1728   0.1725   1.0000  56.5045 160.0000
  12.000   1.9299   0.03594   0.01357  -0.1672   0.1535   1.0000  57.8489 160.0000
  12.500   1.9286   0.04079   0.01671  -0.1626   0.1389   1.0000  58.9068 160.0000
  13.000   1.9294   0.04596   0.02015  -0.1591   0.1275   1.0000  59.7470 160.0000
  13.500   1.9286   0.05180   0.02415  -0.1564   0.1175   1.0000  60.4995 160.0000
  14.000   1.9234   0.05868   0.02900  -0.1546   0.1086   1.0000  61.1866 160.0000
  14.500   1.9173   0.06617   0.03439  -0.1536   0.0998   1.0000  61.8767 160.0000
  15.000   1.9153   0.07345   0.03969  -0.1533   0.0915   1.0000  62.5518 160.0000
