  
       XFOIL         Version 6.99
  
 Calculated polar for: generation/a6                                   
  
 1 1 Reynolds number fixed          Mach number fixed         
  
 xtrf =   1.000 (top)        1.000 (bottom)  
 Mach =   0.000     Re =     0.350 e 6     Ncrit =   9.000  9.000
  
   alpha    CL        CD       CDp       CM     Top_Xtr  Bot_Xtr  Top_Itr  Bot_Itr
  ------ -------- --------- --------- -------- -------- -------- -------- --------
  -2.000   0.7339   0.00941   0.00173  -0.2276   0.8368   0.2496  13.9381 110.7649
  -1.500   0.7946   0.00940   0.00173  -0.2285   0.8184   0.3116  15.1382 114.5509
  -1.000   0.8517   0.00943   0.00170  -0.2286   0.7989   0.3544  16.4068 117.1826
  -0.500   0.9088   0.00947   0.00172  -0.2288   0.7799   0.4086  17.6351 120.5413
   0.000   0.9657   0.00950   0.00174  -0.2290   0.7610   0.4718  18.8464 124.4626
   0.500   1.0214   0.00953   0.00181  -0.2289   0.7418   0.5649  20.0796 130.2400
   1.000   1.0723   0.00951   0.00198  -0.2277   0.7211   0.7098  21.4039 139.2900
   1.500   1.1059   0.00926   0.00196  -0.2223   0.7012   1.0000  22.6775 160.0000
   2.000   1.1598   0.00962   0.00194  -0.2218   0.6810   1.0000  23.9685 160.0000
   2.500   1.2094   0.00995   0.00196  -0.2205   0.6576   1.0000  25.4692 160.0000
   3.000   1.2591   0.01035   0.00196  -0.2192   0.6347   1.0000  26.9343 160.0000
   3.500   1.3072   0.01074   0.00202  -0.2177   0.6115   1.0000  28.4160 160.0000
   4.000   1.3544   0.01121   0.00206  -0.2159   0.5882   1.0000  29.9113 160.0000
   4.500   1.4006   0.01168   0.00215  -0.2140   0.5653   1.0000  31.3779 160.0000
   5.000   1.4458   0.01220   0.00224  -0.2120   0.5431   1.0000  32.7980 160.0000
   5.500   1.4882   0.01276   0.00234  -0.2094   0.5188   1.0000  34.3597 160.0000
   6.000   1.5287   0.01336   0.00246  -0.2064   0.4962   1.0000  35.8048 160.0000
   6.500   1.5669   0.01401   0.00261  -0.2030   0.4730   1.0000  37.2940 160.0000
   7.000   1.6031   0.01473   0.00279  -0.1994   0.4492   1.0000  38.8219 160.0000
   7.500   1.6381   0.01552   0.00302  -0.1956   0.4242   1.0000  40.4251 160.0000
   8.000   1.6699   0.01647   0.00331  -0.1913   0.3973   1.0000  42.1578 160.0000
   8.500   1.6968   0.01763   0.00370  -0.1863   0.3609   1.0000  44.5257 160.0000
   9.000   1.7142   0.01937   0.00436  -0.1799   0.3116   1.0000  47.7871 160.0000
   9.500   1.7264   0.02168   0.00541  -0.1733   0.2600   1.0000  51.2255 160.0000
  10.000   1.7381   0.02426   0.00672  -0.1671   0.2171   1.0000  54.1170 160.0000
  10.500   1.7523   0.02689   0.00812  -0.1618   0.1838   1.0000  56.4041 160.0000
  11.000   1.7639   0.02988   0.00980  -0.1566   0.1549   1.0000  58.4509 160.0000
  11.500   1.7742   0.03320   0.01175  -0.1518   0.1317   1.0000  60.1343 160.0000
  12.000   1.7827   0.03692   0.01400  -0.1475   0.1095   1.0000  61.8206 160.0000
  12.500   1.7879   0.04125   0.01671  -0.1434   0.0867   1.0000  63.6387 160.0000
  13.000   1.7781   0.04758   0.02091  -0.1393   0.0510   1.0000  66.9271 160.0000
  13.500   1.7551   0.05615   0.02711  -0.1356   0.0263   1.0000  70.1800 160.0000
  14.000   1.7430   0.06415   0.03308  -0.1336   0.0212   1.0000  71.1195 160.0000
  14.500   1.7347   0.07216   0.03930  -0.1327   0.0190   1.0000  71.6018 160.0000
  15.000   1.7160   0.08227   0.04762  -0.1328   0.0175   1.0000  71.9424 160.0000
