  
       XFOIL         Version 6.99
  
 Calculated polar for: generation/a7                                   
  
 1 1 Reynolds number fixed          Mach number fixed         
  
 xtrf =   1.000 (top)        1.000 (bottom)  
 Mach =   0.000     Re =     0.350 e 6     Ncrit =   9.000  9.000
  
   alpha    CL        CD       CDp       CM     Top_Xtr  Bot_Xtr  Top_Itr  Bot_Itr
  ------ -------- --------- --------- -------- -------- -------- -------- --------
  -2.000   0.7398   0.00938   0.00169  -0.2273   0.8181   0.2733  15.0898 112.3865
  -1.500   0.7971   0.00942   0.00170  -0.2275   0.7977   0.3268  16.4031 115.6349
  -1.000   0.8544   0.00948   0.00169  -0.2276   0.7773   0.3717  17.7070 118.3754
  -0.500   0.9115   0.00957   0.00171  -0.2278   0.7578   0.4251  18.9506 121.6549
   0.000   0.9660   0.00963   0.00177  -0.2274   0.7375   0.4848  20.2462 125.3354
   0.500   1.0201   0.00970   0.00185  -0.2270   0.7168   0.5650  21.5664 130.2837
   1.000   1.0732   0.00979   0.00198  -0.2262   0.6963   0.6747  22.8643 137.0919
   1.500   1.1209   0.00986   0.00213  -0.2242   0.6762   0.7993  24.1441 144.9497
   2.000   1.1571   0.00980   0.00207  -0.2196   0.6557   1.0000  25.4475 160.0000
   2.500   1.2090   0.01018   0.00207  -0.2188   0.6337   1.0000  26.8477 160.0000
   3.000   1.2596   0.01058   0.00212  -0.2177   0.6120   1.0000  28.2281 160.0000
   3.500   1.3093   0.01100   0.00219  -0.2165   0.5905   1.0000  29.5932 160.0000
   4.000   1.3583   0.01148   0.00226  -0.2152   0.5702   1.0000  30.8861 160.0000
   4.500   1.4061   0.01195   0.00236  -0.2136   0.5495   1.0000  32.2039 160.0000
   5.000   1.4529   0.01245   0.00247  -0.2119   0.5296   1.0000  33.4768 160.0000
   5.500   1.4971   0.01301   0.00256  -0.2097   0.5077   1.0000  34.8688 160.0000
   6.000   1.5405   0.01358   0.00269  -0.2074   0.4870   1.0000  36.1903 160.0000
   6.500   1.5805   0.01417   0.00282  -0.2044   0.4655   1.0000  37.5632 160.0000
   7.000   1.6180   0.01487   0.00299  -0.2009   0.4444   1.0000  38.9148 160.0000
   7.500   1.6536   0.01559   0.00319  -0.1972   0.4208   1.0000  40.4268 160.0000
   8.000   1.6859   0.01650   0.00345  -0.1930   0.3957   1.0000  42.0389 160.0000
   8.500   1.7150   0.01756   0.00380  -0.1884   0.3646   1.0000  44.0544 160.0000
   9.000   1.7377   0.01901   0.00434  -0.1828   0.3235   1.0000  46.7643 160.0000
   9.500   1.7527   0.02106   0.00523  -0.1765   0.2777   1.0000  49.8101 160.0000
  10.000   1.7637   0.02360   0.00649  -0.1700   0.2334   1.0000  52.7798 160.0000
  10.500   1.7740   0.02642   0.00799  -0.1641   0.1954   1.0000  55.3692 160.0000
  11.000   1.7844   0.02946   0.00969  -0.1587   0.1654   1.0000  57.4627 160.0000
  11.500   1.7928   0.03289   0.01172  -0.1537   0.1422   1.0000  59.1281 160.0000
  12.000   1.8028   0.03645   0.01390  -0.1495   0.1232   1.0000  60.5309 160.0000
  12.500   1.8092   0.04063   0.01654  -0.1456   0.1070   1.0000  61.7793 160.0000
  13.000   1.8131   0.04539   0.01966  -0.1422   0.0920   1.0000  62.9683 160.0000
  13.500   1.8178   0.05042   0.02299  -0.1395   0.0753   1.0000  64.3751 160.0000
  14.000   1.8075   0.05764   0.02804  -0.1370   0.0492   1.0000  66.9183 160.0000
  14.500   1.7820   0.06756   0.03553  -0.1352   0.0279   1.0000  69.7389 160.0000
  15.000   1.7635   0.07731   0.04322  -0.1349   0.0220   1.0000  70.8277 160.0000
