  
       XFOIL         Version 6.99
  
 Calculated polar for: generation/a7                                   
  
 1 1 Reynolds number fixed          Mach number fixed         
  
 xtrf =   1.000 (top)        1.000 (bottom)  
 Mach =   0.000     Re =     0.350 e 6     Ncrit =   9.000  9.000
  
   alpha    CL        CD       CDp       CM     Top_Xtr  Bot_Xtr  Top_Itr  Bot_Itr
  ------ -------- --------- --------- -------- -------- -------- -------- --------
  -2.000   0.7294   0.00998   0.00153  -0.2186   0.7082   0.2356  21.9272 110.2504
  -1.500   0.7841   0.01013   0.00165  -0.2183   0.6829   0.3077  23.5175 114.6099
  -1.000   0.8388   0.01033   0.00168  -0.2180   0.6604   0.3488  24.9290 117.1143
  -0.500   0.8939   0.01049   0.00177  -0.2178   0.6407   0.3970  26.1665 120.0623
   0.000   0.9494   0.01061   0.00188  -0.2178   0.6225   0.4538  27.3125 123.5480
   0.500   1.0056   0.01072   0.00204  -0.2179   0.6063   0.5412  28.3272 128.9048
   1.000   1.0604   0.01085   0.00228  -0.2176   0.5917   0.6735  29.2445 137.0307
   1.500   1.1117   0.01103   0.00250  -0.2165   0.5786   0.7866  30.0672 144.1627
   2.000   1.1495   0.01092   0.00252  -0.2122   0.5666   1.0000  30.8215 160.0000
   2.500   1.2055   0.01131   0.00265  -0.2124   0.5548   1.0000  31.5646 160.0000
   3.000   1.2607   0.01174   0.00278  -0.2124   0.5435   1.0000  32.2714 160.0000
   3.500   1.3154   0.01220   0.00289  -0.2123   0.5322   1.0000  32.9834 160.0000
   4.000   1.3675   0.01255   0.00303  -0.2116   0.5206   1.0000  33.7167 160.0000
   4.500   1.4201   0.01300   0.00318  -0.2111   0.5097   1.0000  34.4026 160.0000
   5.000   1.4717   0.01347   0.00328  -0.2105   0.4982   1.0000  35.1299 160.0000
   5.500   1.5217   0.01388   0.00338  -0.2094   0.4865   1.0000  35.8684 160.0000
   6.000   1.5694   0.01429   0.00347  -0.2080   0.4733   1.0000  36.7056 160.0000
   6.500   1.6162   0.01475   0.00356  -0.2064   0.4599   1.0000  37.5615 160.0000
   7.000   1.6612   0.01522   0.00363  -0.2044   0.4457   1.0000  38.4682 160.0000
   7.500   1.7048   0.01575   0.00372  -0.2023   0.4314   1.0000  39.3866 160.0000
   8.000   1.7449   0.01630   0.00380  -0.1994   0.4146   1.0000  40.4690 160.0000
   8.500   1.7798   0.01693   0.00391  -0.1956   0.3964   1.0000  41.6505 160.0000
   9.000   1.8100   0.01774   0.00407  -0.1910   0.3753   1.0000  43.0328 160.0000
   9.500   1.8355   0.01879   0.00436  -0.1858   0.3458   1.0000  44.9879 160.0000
  10.000   1.8532   0.02039   0.00495  -0.1797   0.3061   1.0000  47.6597 160.0000
  10.500   1.8614   0.02280   0.00606  -0.1725   0.2626   1.0000  50.5907 160.0000
  11.000   1.8639   0.02588   0.00768  -0.1654   0.2223   1.0000  53.3319 160.0000
  11.500   1.8636   0.02951   0.00976  -0.1588   0.1876   1.0000  55.7363 160.0000
  12.000   1.8642   0.03350   0.01220  -0.1533   0.1617   1.0000  57.5708 160.0000
  13.000   1.8610   0.04329   0.01860  -0.1449   0.1258   1.0000  60.2048 160.0000
  13.500   1.8582   0.04910   0.02259  -0.1421   0.1111   1.0000  61.3336 160.0000
  14.000   1.8530   0.05569   0.02724  -0.1402   0.0983   1.0000  62.3540 160.0000
  14.500   1.8462   0.06298   0.03252  -0.1390   0.0858   1.0000  63.3827 160.0000
  15.000   1.8359   0.07122   0.03867  -0.1386   0.0719   1.0000  64.5997 160.0000
