  
       XFOIL         Version 6.99
  
 Calculated polar for: generation/a8                                   
  
 1 1 Reynolds number fixed          Mach number fixed         
  
 xtrf =   1.000 (top)        1.000 (bottom)  
 Mach =   0.000     Re =     0.350 e 6     Ncrit =   9.000  9.000
  
   alpha    CL        CD       CDp       CM     Top_Xtr  Bot_Xtr  Top_Itr  Bot_Itr
  ------ -------- --------- --------- -------- -------- -------- -------- --------
  -2.000   0.4939   0.01052   0.00323  -0.1836   0.9116   0.3811   8.9568 118.2319
  -1.500   0.5596   0.01000   0.00297  -0.1853   0.9013   0.4504   9.6802 122.5547
  -1.000   0.6469   0.00931   0.00257  -0.1916   0.8969   0.5216   9.9886 127.0167
  -0.500   0.7170   0.00892   0.00236  -0.1943   0.8836   0.5825  10.9010 130.8519
   0.000   0.7893   0.00860   0.00215  -0.1974   0.8682   0.6395  11.9501 134.4635
   0.500   0.8513   0.00846   0.00204  -0.1983   0.8461   0.6928  13.4381 137.8538
   1.000   0.9152   0.00839   0.00193  -0.1995   0.8222   0.7442  15.0407 141.1513
   1.500   0.9695   0.00845   0.00188  -0.1987   0.7931   0.7936  16.9670 144.3467
   2.000   1.0178   0.00858   0.00187  -0.1965   0.7614   0.8441  19.0565 147.6644
   2.500   1.0569   0.00870   0.00182  -0.1924   0.7270   0.9034  21.3176 151.6943
   3.000   1.0989   0.00884   0.00163  -0.1891   0.6898   1.0000  23.7457 160.0000
   3.500   1.1502   0.00933   0.00165  -0.1882   0.6510   1.0000  26.2673 160.0000
   4.000   1.1981   0.00989   0.00171  -0.1865   0.6101   1.0000  28.9235 160.0000
   4.500   1.2431   0.01050   0.00180  -0.1843   0.5661   1.0000  31.7756 160.0000
   5.000   1.2864   0.01119   0.00194  -0.1818   0.5218   1.0000  34.6459 160.0000
   5.500   1.3276   0.01196   0.00212  -0.1790   0.4759   1.0000  37.6237 160.0000
   6.000   1.3652   0.01284   0.00235  -0.1755   0.4273   1.0000  40.7850 160.0000
   6.500   1.3988   0.01389   0.00265  -0.1713   0.3706   1.0000  44.4844 160.0000
   7.000   1.4305   0.01514   0.00306  -0.1670   0.3105   1.0000  48.4414 160.0000
   7.500   1.4617   0.01654   0.00359  -0.1628   0.2540   1.0000  52.2064 160.0000
   8.000   1.4921   0.01808   0.00422  -0.1587   0.2013   1.0000  55.7926 160.0000
   8.500   1.5191   0.01989   0.00501  -0.1542   0.1482   1.0000  59.5156 160.0000
   9.000   1.5450   0.02181   0.00592  -0.1497   0.1069   1.0000  62.5716 160.0000
   9.500   1.5676   0.02402   0.00700  -0.1449   0.0702   1.0000  65.5243 160.0000
  10.000   1.5755   0.02750   0.00884  -0.1383   0.0295   1.0000  69.8580 160.0000
  10.500   1.5882   0.03068   0.01063  -0.1327   0.0214   1.0000  71.2219 160.0000
  11.000   1.6014   0.03390   0.01262  -0.1278   0.0184   1.0000  71.8290 160.0000
  11.500   1.6063   0.03805   0.01535  -0.1226   0.0171   1.0000  72.1334 160.0000
  12.000   1.6121   0.04239   0.01833  -0.1184   0.0161   1.0000  72.3741 160.0000
  12.500   1.6142   0.04746   0.02197  -0.1147   0.0154   1.0000  72.5700 160.0000
  13.000   1.6133   0.05331   0.02629  -0.1118   0.0148   1.0000  72.7265 160.0000
  13.500   1.6089   0.06011   0.03143  -0.1097   0.0143   1.0000  72.8539 160.0000
  14.000   1.6027   0.06782   0.03721  -0.1081   0.0138   1.0000  72.9680 160.0000
  14.500   1.6031   0.07500   0.04284  -0.1074   0.0135   1.0000  73.0711 160.0000
  15.000   1.6026   0.08251   0.04914  -0.1076   0.0131   1.0000  73.1946 160.0000
