  
       XFOIL         Version 6.99
  
 Calculated polar for: generation/a9                                   
  
 1 1 Reynolds number fixed          Mach number fixed         
  
 xtrf =   1.000 (top)        1.000 (bottom)  
 Mach =   0.000     Re =     0.350 e 6     Ncrit =   9.000  9.000
  
   alpha    CL        CD       CDp       CM     Top_Xtr  Bot_Xtr  Top_Itr  Bot_Itr
  ------ -------- --------- --------- -------- -------- -------- -------- --------
  -2.000   0.6434   0.00931   0.00207  -0.2118   0.8841   0.3319  10.9963 115.4281
  -1.500   0.7220   0.00904   0.00182  -0.2163   0.8606   0.3642  12.5586 117.3966
  -1.000   0.7978   0.00889   0.00162  -0.2202   0.8304   0.3971  14.5299 119.4172
  -0.500   0.8635   0.00895   0.00152  -0.2219   0.7943   0.4323  16.8676 121.5879
   0.000   0.9209   0.00914   0.00151  -0.2219   0.7557   0.4719  19.3458 124.0372
   0.500   0.9753   0.00941   0.00157  -0.2214   0.7182   0.5169  21.7410 126.8293
   1.000   1.0283   0.00974   0.00167  -0.2205   0.6836   0.5680  23.9419 130.0100
   2.000   1.1306   0.01042   0.00199  -0.2182   0.6212   0.6859  27.8921 137.4002
   2.500   1.1804   0.01073   0.00219  -0.2167   0.5954   0.7535  29.5181 141.6925
   3.000   1.2264   0.01106   0.00238  -0.2143   0.5723   0.8327  30.9804 146.7979
   3.500   1.2600   0.01111   0.00237  -0.2092   0.5502   1.0000  32.3767 160.0000
   4.000   1.3127   0.01162   0.00247  -0.2086   0.5278   1.0000  33.7916 160.0000
   4.500   1.3633   0.01214   0.00257  -0.2076   0.5049   1.0000  35.2409 160.0000
   5.000   1.4128   0.01266   0.00269  -0.2064   0.4824   1.0000  36.6695 160.0000
   5.500   1.4609   0.01324   0.00281  -0.2049   0.4602   1.0000  38.0798 160.0000
   6.000   1.5080   0.01380   0.00296  -0.2032   0.4370   1.0000  39.5623 160.0000
   6.500   1.5521   0.01447   0.00311  -0.2010   0.4101   1.0000  41.2864 160.0000
   7.000   1.5932   0.01521   0.00330  -0.1982   0.3795   1.0000  43.2539 160.0000
   7.500   1.6286   0.01616   0.00356  -0.1944   0.3396   1.0000  45.8645 160.0000
   8.500   1.6852   0.01918   0.00473  -0.1848   0.2454   1.0000  52.1129 160.0000
   9.000   1.7100   0.02106   0.00559  -0.1798   0.2045   1.0000  54.8723 160.0000
   9.500   1.7333   0.02307   0.00657  -0.1747   0.1709   1.0000  57.1846 160.0000
  10.500   1.7760   0.02746   0.00886  -0.1649   0.1251   1.0000  60.4685 160.0000
  11.000   1.7948   0.02995   0.01024  -0.1601   0.1095   1.0000  61.6407 160.0000
  11.500   1.8114   0.03273   0.01184  -0.1556   0.0963   1.0000  62.6645 160.0000
  12.000   1.8253   0.03591   0.01373  -0.1512   0.0831   1.0000  63.7287 160.0000
  12.500   1.8340   0.03978   0.01611  -0.1470   0.0687   1.0000  64.9652 160.0000
  13.000   1.8381   0.04444   0.01909  -0.1432   0.0501   1.0000  66.7849 160.0000
  14.000   1.8070   0.06011   0.03038  -0.1370   0.0236   1.0000  70.3538 160.0000
  14.500   1.7874   0.06978   0.03790  -0.1362   0.0201   1.0000  71.0314 160.0000
  15.000   1.7769   0.07877   0.04508  -0.1366   0.0179   1.0000  71.5285 160.0000
